Pcp_File_Version=4
*** BLOCK I: ATMOSPHERIC INFORMATION  **********************************
   MaxAL                    (MaxAL = number of atmospheric data-records)
   2256
 DailyVar  SinusVar  lLay  lBCCycles lInterc lDummy  lDummy  lDummy  lDummy  lDummy
       f       f       f       f       f       f       f       f       f       f
 hCritS                 (max. allowed pressure head at the soil surface)
      0
       tAtm        Prec       rSoil       rRoot      hCritA          rB          hB          ht    RootDepth
1 0 0 0 783 0 0 0 8.5 
2 0 0 0 783 0 0 0 8.51284 
3 0 0 0 783 0 0 0 8.52569 
4 0 0 0 783 0 0 0 8.53854 
5 0 0 0.000432221 783 0 0 0 8.55141 
6 0 0 0.000224603 783 0 0 0 8.56429 
7 0 0 0.000344056 783 0 0 0 8.57717 
8 0 0 0.00132868 783 0 0 0 8.59007 
9 0 0 0.0025174 783 0 0 0 8.60297 
10 0 0 0.00330264 783 0 0 0 8.61588 
11 0 0 0.00394748 783 0 0 0 8.62881 
12 0 0 0.00459059 783 0 0 0 8.64174 
13 0 0 0.00503863 783 0 0 0 8.65468 
14 0 0 0.00507012 783 0 0 0 8.66763 
15 0 0 0.00495958 783 0 0 0 8.68059 
16 0 0 0.00440235 783 0 0 0 8.69355 
17 0 0 0.00259576 783 0 0 0 8.70653 
18 0 0 0.00176023 783 0 0 0 8.71952 
19 0 0 0.00109768 783 0 0 0 8.73251 
20 0 0 0.000808822 783 0 0 0 8.74552 
21 0 0 0.000486187 783 0 0 0 8.75853 
22 0 0 0.000279819 783 0 0 0 8.77155 
23 0 0 0.000220902 783 0 0 0 8.78458 
24 0 0 0.000180837 783 0 0 0 8.79762 
25 0 0 0.000135738 783 0 0 0 8.81067 
26.0006 2.41087 0 8.59e-005 783 0 0 0 8.82372 
27 0 0 0 783 0 0 0 8.83679 
28 0 0 0.000105218 783 0 0 0 8.84987 
29 0 0 0.00028414 783 0 0 0 8.86295 
30 0 0 0.000293977 783 0 0 0 8.87604 
31 0 0 0.000247302 783 0 0 0 8.88914 
32 0 0 0.000369582 783 0 0 0 8.90225 
33 0 0 0.000665049 783 0 0 0 8.91537 
34 0 0 0.00129167 783 0 0 0 8.9285 
35 0 0 0.00150715 783 0 0 0 8.94163 
36 0 0 0.00178374 783 0 0 0 8.95477 
37 0 0 0.00221234 783 0 0 0 8.96793 
38 0 0 0.00306399 783 0 0 0 8.98109 
39 0 0 0.00409831 783 0 0 0 8.99426 
40 0 0 0.00362624 783 0 0 0 9.00743 
41 0 0 0.0032889 783 0 0 0 9.02062 
42 0 0 0.00255217 783 0 0 0 9.03382 
43 0 0 0.00132117 783 0 0 0 9.04702 
44 0 0 0.00052613 783 0 0 0 9.06023 
45 0 0 0 783 0 0 0 9.07345 
46 0 0 0 783 0 0 0 9.08668 
47 0 0 0 783 0 0 0 9.09991 
48 0 0 0 783 0 0 0 9.11316 
49 0 0 0 783 0 0 0 9.12641 
50 0 0 0 783 0 0 0 9.13967 
51 0 0 0 783 0 0 0 9.15294 
52 0 0 0 783 0 0 0 9.16622 
53 0 0 0.000190624 783 0 0 0 9.1795 
54 0 0 0.000189518 783 0 0 0 9.1928 
55 0 0 0.000278968 783 0 0 0 9.2061 
56 0 0 0.000573686 783 0 0 0 9.21941 
57 0 0 0.00110914 783 0 0 0 9.23272 
58 0 0 0.00166898 783 0 0 0 9.24605 
59 0 0 0.00193998 783 0 0 0 9.25938 
60 0 0 0.00213768 783 0 0 0 9.27272 
61 0 0 0.00213281 783 0 0 0 9.28607 
62 0 0 0.00219921 783 0 0 0 9.29943 
63 0 0 0.00185263 783 0 0 0 9.31279 
64 0 0 0.00150534 783 0 0 0 9.32617 
65 0 0 0.00197189 783 0 0 0 9.33955 
66 0 0 0.00175498 783 0 0 0 9.35293 
67 0 0 0.00132497 783 0 0 0 9.36633 
68 0 0 0.000512348 783 0 0 0 9.37973 
69 0 0 0.00022002 783 0 0 0 9.39314 
70 0 0 0.000370134 783 0 0 0 9.40656 
71 0 0 0.000100735 783 0 0 0 9.41999 
72 0 0 0.000476616 783 0 0 0 9.43342 
73 0 0 0.000784289 783 0 0 0 9.44687 
74 0 0 0.000695612 783 0 0 0 9.46031 
75 0 0 0.000509436 783 0 0 0 9.47377 
76 0 0 0.00025474 783 0 0 0 9.48723 
77 0 0 0.000288823 783 0 0 0 9.50071 
78 0 0 0.000416733 783 0 0 0 9.51418 
79 0 0 0.00127177 783 0 0 0 9.52767 
80 0 0 0.00163941 783 0 0 0 9.54116 
81 0 0 0.00260101 783 0 0 0 9.55466 
82 0 0 0.00328328 783 0 0 0 9.56817 
83 0 0 0.00384794 783 0 0 0 9.58169 
84 0 0 0.00430205 783 0 0 0 9.59521 
85 0 0 0.0048104 783 0 0 0 9.60874 
86 0 0 0.00521983 783 0 0 0 9.62228 
87 0 0 0.00489504 783 0 0 0 9.63582 
88 0 0 0.00437687 783 0 0 0 9.64937 
89 0 0 0.00400143 783 0 0 0 9.66293 
90 0 0 0.00340666 783 0 0 0 9.67649 
91 0 0 0.00244537 783 0 0 0 9.69007 
92 0 0 0.0017735 783 0 0 0 9.70365 
93 0 0 0.000374455 783 0 0 0 9.71723 
94 0 0 0 783 0 0 0 9.73083 
95 0 0 0 783 0 0 0 9.74442 
96 0 0 0 783 0 0 0 9.75803 
97 0 0 0 783 0 0 0 9.77165 
98 0 0 0 783 0 0 0 9.78527 
99 0 0 0 783 0 0 0 9.79889 
100 0 0 0 783 0 0 0 9.81253 
101 0 0 0.000179737 783 0 0 0 9.82617 
102 0 0 0.000171628 783 0 0 0 9.83982 
103 0 0 0.000335233 783 0 0 0 9.85347 
104 0 0 0.00113838 783 0 0 0 9.86713 
105 0 0 0.00235652 783 0 0 0 9.8808 
106 0 0 0.00350607 783 0 0 0 9.89447 
107 0 0 0.00463087 783 0 0 0 9.90815 
108 0 0 0.0058095 783 0 0 0 9.92184 
109 0 0 0.00645771 783 0 0 0 9.93553 
110 0 0 0.00683429 783 0 0 0 9.94923 
111 0 0 0.00660719 783 0 0 0 9.96294 
112 0 0 0.00587108 783 0 0 0 9.97665 
113 0 0 0.0044023 783 0 0 0 9.99037 
114 0 0 0.00303 783 0 0 0 10.0041 
115 0 0 0.00195969 783 0 0 0 10.0178 
116 0 0 0.00106661 783 0 0 0 10.0316 
117 0 0 0 783 0 0 0 10.0453 
118 0 0 0 783 0 0 0 10.0591 
119 0 0 0 783 0 0 0 10.0728 
120 0 0 0 783 0 0 0 10.0866 
121 0 0 0 783 0 0 0 10.1003 
121.5 2.41087 0 0 783 0 0 0 10.1141 
123 0 0 0 783 0 0 0 10.1279 
124 0 0 0 783 0 0 0 10.1417 
125 0 0 0.000550606 783 0 0 0 10.1555 
126 0 0 0.00047524 783 0 0 0 10.1693 
127 0 0 0.000427557 783 0 0 0 10.1831 
128 0 0 0.00131556 783 0 0 0 10.1969 
129 0 0 0.00256727 783 0 0 0 10.2107 
130 0 0 0.00396173 783 0 0 0 10.2245 
131 0 0 0.00557477 783 0 0 0 10.2383 
132 0 0 0.00644599 783 0 0 0 10.2522 
133 0 0 0.00698895 783 0 0 0 10.266 
134 0 0 0.00699369 783 0 0 0 10.2799 
135 0 0 0.00653793 783 0 0 0 10.2937 
136 0 0 0.00592808 783 0 0 0 10.3076 
137 0 0 0.00440413 783 0 0 0 10.3214 
138 0 0 0.00256869 783 0 0 0 10.3353 
139 0 0 0.000780584 783 0 0 0 10.3492 
140 0 0 0 783 0 0 0 10.363 
141 0 0 0 783 0 0 0 10.3769 
142 0 0 0 783 0 0 0 10.3908 
143 0 0 0 783 0 0 0 10.4047 
144 0 0 0 783 0 0 0 10.4186 
145 0 0 0 783 0 0 0 10.4325 
146 0 0 0 783 0 0 0 10.4464 
147 0 0 0 783 0 0 0 10.4603 
148 0 0 0 783 0 0 0 10.4743 
149 0 0 0.000294451 783 0 0 0 10.4882 
150 0 0 0.000269987 783 0 0 0 10.5021 
151 0 0 0.000435161 783 0 0 0 10.5161 
152 0 0 0.000936769 783 0 0 0 10.53 
153 0 0 0.00159752 783 0 0 0 10.5439 
154 0 0 0.00254771 783 0 0 0 10.5579 
155 0 0 0.00434561 783 0 0 0 10.5718 
156 0 0 0.00549108 783 0 0 0 10.5858 
157 0 0 0.00572548 783 0 0 0 10.5998 
158 0 0 0.00617405 783 0 0 0 10.6137 
159 0 0 0.00519779 783 0 0 0 10.6277 
160 0 0 0.00471736 783 0 0 0 10.6417 
161 0 0 0.00507635 783 0 0 0 10.6557 
162 0 0 0.00245369 783 0 0 0 10.6697 
163 0 0 0.00146757 783 0 0 0 10.6837 
164 0 0 0.000113459 783 0 0 0 10.6977 
165 0 0 0 783 0 0 0 10.7117 
166 0 0 0 783 0 0 0 10.7257 
167 0 0 0 783 0 0 0 10.7397 
168 0 0 0 783 0 0 0 10.7537 
169 0 0 0 783 0 0 0 10.7677 
170 0 0 0 783 0 0 0 10.7817 
171 0 0 0 783 0 0 0 10.7958 
172 0 0 0 783 0 0 0 10.8098 
173 0 0 0.000543072 783 0 0 0 10.8239 
174 0 0 0.000389128 783 0 0 0 10.8379 
175 0 0 0.000564958 783 0 0 0 10.8519 
176 0 0 0.00169578 783 0 0 0 10.866 
177 0 0 0.00249686 783 0 0 0 10.8801 
178 0 0 0.00390769 783 0 0 0 10.8941 
179 0 0 0.00538258 783 0 0 0 10.9082 
180 0 0 0.00634705 783 0 0 0 10.9222 
181 0 0 0.00833177 783 0 0 0 10.9363 
182 0 0 0.00657366 783 0 0 0 10.9504 
183 0 0 0.00636059 783 0 0 0 10.9645 
184 0 0 0.00685813 783 0 0 0 10.9786 
185 0 0 0.00410558 783 0 0 0 10.9926 
186 0 0 0.00259658 783 0 0 0 11.0067 
187 0 0 0.0017163 783 0 0 0 11.0208 
188 0 0 0.00070284 783 0 0 0 11.0349 
189 0 0 0 783 0 0 0 11.049 
190 0 0 7.99e-005 783 0 0 0 11.0631 
191 0 0 6.21e-005 783 0 0 0 11.0773 
192 0 0 0 783 0 0 0 11.0914 
193 0 0 0 783 0 0 0 11.1055 
194 0 0 1.89e-005 783 0 0 0 11.1196 
195 0 0 0 783 0 0 0 11.1337 
196 0 0 0 783 0 0 0 11.1479 
197 0 0 0.000417512 783 0 0 0 11.162 
198 0 0 0.000332557 783 0 0 0 11.1761 
199 0 0 0.000480773 783 0 0 0 11.1903 
200 0 0 0.00167768 783 0 0 0 11.2044 
200.5 2.41087 0 0.00321982 783 0 0 0 11.2186 
202 0 0 0.00472222 783 0 0 0 11.2327 
203 0 0 0.00603239 783 0 0 0 11.2469 
204 0 0 0.00748302 783 0 0 0 11.261 
205 0 0 0.00825334 783 0 0 0 11.2752 
206 0 0 0.00860533 783 0 0 0 11.2893 
207 0 0 0.00850593 783 0 0 0 11.3035 
208 0 0 0.00728946 783 0 0 0 11.3177 
209 0 0 0.00612909 783 0 0 0 11.3319 
210 0 0 0.0047852 783 0 0 0 11.346 
211 0 0 0.00297847 783 0 0 0 11.3602 
212 0 0 0.00202954 783 0 0 0 11.3744 
213 0 0 0.00168201 783 0 0 0 11.3886 
214 0 0 0.00113301 783 0 0 0 11.4028 
215 0 0 0 783 0 0 0 11.4169 
216 0 0 0 783 0 0 0 11.4311 
217 0 0 0 783 0 0 0 11.4453 
218 0 0 0 783 0 0 0 11.4595 
219 0 0 0 783 0 0 0 11.4737 
220 0 0 0 783 0 0 0 11.4879 
221 0 0 0.000880485 783 0 0 0 11.5021 
222 0 0 0.000860241 783 0 0 0 11.5163 
223 0 0 0.000981595 783 0 0 0 11.5306 
224 0 0 0.00179577 783 0 0 0 11.5448 
225 0 0 0.00172315 783 0 0 0 11.559 
226 0 0 0.00157648 783 0 0 0 11.5732 
227 0 0 0.0019741 783 0 0 0 11.5874 
228 0 0 0.0026215 783 0 0 0 11.6016 
229 0 0 0.00416859 783 0 0 0 11.6159 
230 0 0 0.0037009 783 0 0 0 11.6301 
231 0 0 0.00325352 783 0 0 0 11.6443 
232 0 0 0.00169407 783 0 0 0 11.6586 
233 0 0 0.00106361 783 0 0 0 11.6728 
234 0 0 0.000350539 783 0 0 0 11.687 
235 0 0 0 783 0 0 0 11.7013 
236 0 0 0 783 0 0 0 11.7155 
237 0 0 0 783 0 0 0 11.7298 
238 0 0 0 783 0 0 0 11.744 
239 0 0 0 783 0 0 0 11.7582 
240 0 0 0 783 0 0 0 11.7725 
241 0 0 0 783 0 0 0 11.7867 
242 0 0 0 783 0 0 0 11.801 
243 0 0 0 783 0 0 0 11.8153 
244 0 0 0 783 0 0 0 11.8295 
245 0 0 0.000252929 783 0 0 0 11.8438 
246 0 0 0.000256894 783 0 0 0 11.858 
247 0 0 0.00029565 783 0 0 0 11.8723 
248 0 0 0.00047143 783 0 0 0 11.8866 
249 0 0 0.000894829 783 0 0 0 11.9008 
250 0 0 0.00113196 783 0 0 0 11.9151 
251 0 0 0.00105796 783 0 0 0 11.9294 
252 0 0 0.00153834 783 0 0 0 11.9436 
253 0 0 0.00127163 783 0 0 0 11.9579 
254 0 0 0.000933801 783 0 0 0 11.9722 
255 0 0 0.000893763 783 0 0 0 11.9864 
256 0 0 0.00144785 783 0 0 0 12.0007 
257 0 0 0.00105372 783 0 0 0 12.015 
258 0 0 7.86e-005 783 0 0 0 12.0293 
259 0 0 0 783 0 0 0 12.0435 
260 0 0 0 783 0 0 0 12.0578 
261 0 0 0 783 0 0 0 12.0721 
262 0 0 0 783 0 0 0 12.0864 
263 0 0 0 783 0 0 0 12.1007 
264 0 0 0 783 0 0 0 12.115 
265 0 0 0 783 0 0 0 12.1292 
266 0 0 0 783 0 0 0 12.1435 
267 0 0 0 783 0 0 0 12.1578 
268 0 0 0 783 0 0 0 12.1721 
269 0 0 0.000250016 783 0 0 0 12.1864 
270 0 0 0.000255627 783 0 0 0 12.2007 
271 0 0 0.000299126 783 0 0 0 12.215 
272 0 0 0.000457978 783 0 0 0 12.2293 
273 0 0 0.000623523 783 0 0 0 12.2436 
274 0 0 0.00110858 783 0 0 0 12.2578 
275 0 0 0.00136313 783 0 0 0 12.2721 
276 0 0 0.00177047 783 0 0 0 12.2864 
277 0 0 0.00169908 783 0 0 0 12.3007 
278 0 0 0.00134335 783 0 0 0 12.315 
279 0 0 0.00101766 783 0 0 0 12.3293 
280 0 0 0.000781525 783 0 0 0 12.3436 
281 0 0 0.000560057 783 0 0 0 12.3579 
282 0 0 0.000178696 783 0 0 0 12.3722 
283 0 0 0 783 0 0 0 12.3865 
284 0 0 0 783 0 0 0 12.4008 
285 0 0 0 783 0 0 0 12.4151 
286 0 0 0 783 0 0 0 12.4294 
287 0 0 0 783 0 0 0 12.4437 
288 0 0 0 783 0 0 0 12.458 
289 0 0 0 783 0 0 0 12.4723 
290 0 0 0 783 0 0 0 12.4866 
291 0 0 0 783 0 0 0 12.5009 
292 0 0 0 783 0 0 0 12.5152 
293 0 0 0.000232596 783 0 0 0 12.5295 
294 0 0 0.000235847 783 0 0 0 12.5438 
295 0 0 0.000546602 783 0 0 0 12.5581 
296 0 0 0.00170537 783 0 0 0 12.5724 
297 0 0 0.00320884 783 0 0 0 12.5867 
298 0 0 0.00486745 783 0 0 0 12.601 
299 0 0 0.00619339 783 0 0 0 12.6153 
300 0 0 0.00732691 783 0 0 0 12.6296 
301 0 0 0.00801925 783 0 0 0 12.6439 
302 0 0 0.00840891 783 0 0 0 12.6582 
303 0 0 0.00804814 783 0 0 0 12.6724 
304 0 0 0.00649547 783 0 0 0 12.6867 
305 0 0 0.00556881 783 0 0 0 12.701 
306 0 0 0.0040978 783 0 0 0 12.7153 
307 0 0 0.00106958 783 0 0 0 12.7296 
308 0 0 0.00115515 783 0 0 0 12.7439 
309 0 0 0.000328282 783 0 0 0 12.7582 
310 0 0 0 783 0 0 0 12.7725 
311 0 0 0 783 0 0 0 12.7868 
312 0 0 0 783 0 0 0 12.8011 
313 0 0 0 783 0 0 0 12.8154 
314 0 0 0 783 0 0 0 12.8297 
315 0 0 0 783 0 0 0 12.844 
316 0 0 0 783 0 0 0 12.8582 
317 0 0 0.000296414 783 0 0 0 12.8725 
318 0 0 0.000295016 783 0 0 0 12.8868 
319 0 0 0.000578886 783 0 0 0 12.9011 
320 0 0 0.00183717 783 0 0 0 12.9154 
321 0 0 0.00356891 783 0 0 0 12.9297 
322 0 0 0.00504642 783 0 0 0 12.9439 
323 0 0 0.00646635 783 0 0 0 12.9582 
324 0 0 0.00743821 783 0 0 0 12.9725 
325 0 0 0.0074503 783 0 0 0 12.9868 
326 0 0 0.00691714 783 0 0 0 13.001 
327 0 0 0.00433072 783 0 0 0 13.0153 
328 0 0 0.00301653 783 0 0 0 13.0296 
329 0 0 0.00199534 783 0 0 0 13.0439 
330 0 0 0.0013136 783 0 0 0 13.0581 
331 0 0 0.000702967 783 0 0 0 13.0724 
332 0 0 0.000684463 783 0 0 0 13.0867 
333 0 0 1.51e-005 783 0 0 0 13.1009 
334 0 0 0.000129586 783 0 0 0 13.1152 
335 0 0 0 783 0 0 0 13.1295 
336 0 0 0 783 0 0 0 13.1437 
337 0 0 0 783 0 0 0 13.158 
338 0 0 0 783 0 0 0 13.1722 
339 0 0 0 783 0 0 0 13.1865 
340 0 0 0 783 0 0 0 13.2008 
341 0 0 0.000394224 783 0 0 0 13.215 
342 0 0 0.000464117 783 0 0 0 13.2293 
343 0 0 0.000388071 783 0 0 0 13.2435 
344 0 0 0.000647198 783 0 0 0 13.2578 
345 0 0 0.00118341 783 0 0 0 13.272 
346 0 0 0.00200676 783 0 0 0 13.2862 
347 0 0 0.00337099 783 0 0 0 13.3005 
348 0 0 0.00532266 783 0 0 0 13.3147 
349 0 0 0.00757243 783 0 0 0 13.329 
350 0 0 0.00745521 783 0 0 0 13.3432 
351 0 0 0.0081595 783 0 0 0 13.3574 
352 0 0 0.00716841 783 0 0 0 13.3717 
353 0 0 0.00542979 783 0 0 0 13.3859 
354 0 0 0.00498569 783 0 0 0 13.4001 
355 0 0 0.00198275 783 0 0 0 13.4143 
356 0 0 0.000996298 783 0 0 0 13.4285 
357 0 0 0 783 0 0 0 13.4428 
358 0 0 0 783 0 0 0 13.457 
359 0 0 0 783 0 0 0 13.4712 
360 0 0 0 783 0 0 0 13.4854 
361 0 0 0 783 0 0 0 13.4996 
362 0 0 0 783 0 0 0 13.5138 
363 0 0 0 783 0 0 0 13.528 
364 0 0 0 783 0 0 0 13.5422 
365 0 0 0.000341012 783 0 0 0 13.5564 
366 0 0 0.00034056 783 0 0 0 13.5706 
367 0 0 0.000715368 783 0 0 0 13.5848 
368 0 0 0.00234586 783 0 0 0 13.599 
369 0 0 0.00363352 783 0 0 0 13.6132 
370 0 0 0.00588218 783 0 0 0 13.6274 
371 0 0 0.00872019 783 0 0 0 13.6415 
372 0 0 0.00895479 783 0 0 0 13.6557 
373 0 0 0.00976566 783 0 0 0 13.6699 
374 0 0 0.00885018 783 0 0 0 13.6841 
375 0 0 0.00878354 783 0 0 0 13.6982 
376 0 0 0.0078804 783 0 0 0 13.7124 
377 0 0 0.0069806 783 0 0 0 13.7266 
378 0 0 0.00361502 783 0 0 0 13.7407 
379 0 0 0.00224099 783 0 0 0 13.7549 
380 0 0 0.00135505 783 0 0 0 13.769 
381 0 0 0.000116561 783 0 0 0 13.7832 
382 0 0 0 783 0 0 0 13.7973 
383 0 0 0 783 0 0 0 13.8115 
384 0 0 0 783 0 0 0 13.8256 
385 0 0 0 783 0 0 0 13.8397 
386 0 0 0 783 0 0 0 13.8539 
387 0 0 0 783 0 0 0 13.868 
388 0 0 0 783 0 0 0 13.8821 
389 0 0 0.000387693 783 0 0 0 13.8963 
390 0 0 0.000376471 783 0 0 0 13.9104 
391 0 0 0.000652013 783 0 0 0 13.9245 
392 0 0 0.00192366 783 0 0 0 13.9386 
393 0 0 0.00425268 783 0 0 0 13.9527 
394 0 0 0.00613424 783 0 0 0 13.9668 
395 0 0 0.00804033 783 0 0 0 13.9809 
396 0 0 0.00922761 783 0 0 0 13.995 
397 0 0 0.00997676 783 0 0 0 14.0091 
398 0 0 0.0109584 783 0 0 0 14.0232 
399 0 0 0.0107676 783 0 0 0 14.0373 
400 0 0 0.00792351 783 0 0 0 14.0513 
401 0 0 0.00447374 783 0 0 0 14.0654 
402 0 0 0.00353202 783 0 0 0 14.0795 
403 0 0 0.00181605 783 0 0 0 14.0936 
404 0 0 0.000904589 783 0 0 0 14.1076 
405 0 0 0 783 0 0 0 14.1217 
405.482 2.41087 0 0 783 0 0 0 14.1357 
407 0 0 0.000129318 783 0 0 0 14.1498 
408 0 0 7.97e-005 783 0 0 0 14.1638 
409 0 0 0 783 0 0 0 14.1779 
410 0 0 0 783 0 0 0 14.1919 
411 0 0 0 783 0 0 0 14.206 
412 0 0 0 783 0 0 0 14.22 
413 0 0 0.000487409 783 0 0 0 14.234 
414 0 0 0.000397985 783 0 0 0 14.248 
415 0 0 0.000789676 783 0 0 0 14.262 
416 0 0 0.00241174 783 0 0 0 14.2761 
417 0 0 0.00461268 783 0 0 0 14.2901 
418 0 0 0.00503058 783 0 0 0 14.3041 
419 0 0 0.00596817 783 0 0 0 14.3181 
420 0 0 0.00619909 783 0 0 0 14.3321 
421 0 0 0.00873386 783 0 0 0 14.346 
422 0 0 0.00915306 783 0 0 0 14.36 
423 0 0 0.0107101 783 0 0 0 14.374 
424 0 0 0.00915257 783 0 0 0 14.388 
425 0 0 0.00723048 783 0 0 0 14.402 
426 0 0 0.00634171 783 0 0 0 14.4159 
427 0 0 0.00157839 783 0 0 0 14.4299 
428 0 0 0.000977854 783 0 0 0 14.4438 
429 0 0 0 783 0 0 0 14.4578 
430 0 0 0 783 0 0 0 14.4717 
431 0 0 0 783 0 0 0 14.4857 
432 0 0 0 783 0 0 0 14.4996 
433 0 0 0 783 0 0 0 14.5135 
434 0 0 0 783 0 0 0 14.5275 
435 0 0 0 783 0 0 0 14.5414 
436 0 0 0 783 0 0 0 14.5553 
437 0 0 0.000518366 783 0 0 0 14.5692 
438 0 0 0.000681821 783 0 0 0 14.5831 
439 0 0 0.00112187 783 0 0 0 14.597 
440 0 0 0.00316683 783 0 0 0 14.6109 
441 0 0 0.00562629 783 0 0 0 14.6248 
442 0 0 0.00793852 783 0 0 0 14.6387 
443 0 0 0.0103463 783 0 0 0 14.6525 
444 0 0 0.0122815 783 0 0 0 14.6664 
445 0 0 0.0133751 783 0 0 0 14.6803 
446 0 0 0.0140644 783 0 0 0 14.6941 
447 0 0 0.0115929 783 0 0 0 14.708 
448 0 0 0.0107335 783 0 0 0 14.7218 
449 0 0 0.00784164 783 0 0 0 14.7357 
450 0 0 0.00467197 783 0 0 0 14.7495 
451 0 0 0.00179023 783 0 0 0 14.7634 
452 0 0 0 783 0 0 0 14.7772 
453 0 0 0 783 0 0 0 14.791 
454 0 0 0 783 0 0 0 14.8048 
455 0 0 8.11e-005 783 0 0 0 14.8186 
456 0 0 0 783 0 0 0 14.8324 
457 0 0 0.000232345 783 0 0 0 14.8462 
458 0 0 7.82e-005 783 0 0 0 14.86 
459 0 0 0 783 0 0 0 14.8738 
460 0 0 0 783 0 0 0 14.8876 
461 0 0 0.00111869 783 0 0 0 14.9014 
462 0 0 0.000579169 783 0 0 0 14.9151 
463 0 0 0.000958076 783 0 0 0 14.9289 
464 0 0 0.00290198 783 0 0 0 14.9426 
465 0 0 0.00545473 783 0 0 0 14.9564 
466 0 0 0.00813884 783 0 0 0 14.9701 
467 0 0 0.0105292 783 0 0 0 14.9839 
468 0 0 0.0128813 783 0 0 0 14.9976 
469 0 0 0.0141253 783 0 0 0 15.0113 
470 0 0 0.0144864 783 0 0 0 15.025 
471 0 0 0.0104412 783 0 0 0 15.0388 
472 0 0 0.00882556 783 0 0 0 15.0525 
473 0 0 0.00442455 783 0 0 0 15.0662 
474 0 0 0.00390444 783 0 0 0 15.0799 
475 0 0 0.00111627 783 0 0 0 15.0935 
476 0 0 0.000551542 783 0 0 0 15.1072 
477 0 0 0.000809801 783 0 0 0 15.1209 
477.5 2.41087 0 0 783 0 0 0 15.1346 
479 0 0 0.00121493 783 0 0 0 15.1482 
480 0 0 0.00296247 783 0 0 0 15.1619 
481 0 0 0.00225271 783 0 0 0 15.1755 
482 0 0 0.00185066 783 0 0 0 15.1892 
483 0 0 0.00201572 783 0 0 0 15.2028 
484 0 0 0.000958249 783 0 0 0 15.2164 
485 0 0 0.00242728 783 0 0 0 15.23 
486 0 0 0.00133877 783 0 0 0 15.2436 
487 0 0 0.00122589 783 0 0 0 15.2573 
488 0 0 0.00170019 783 0 0 0 15.2709 
489 0 0 0.00319354 783 0 0 0 15.2844 
490 0 0 0.00363735 783 0 0 0 15.298 
491 0 0 0.00440528 783 0 0 0 15.3116 
492 0 0 0.00589345 783 0 0 0 15.3252 
493 0 0 0.00977098 783 0 0 0 15.3387 
494 0 0 0.0122564 783 0 0 0 15.3523 
495 0 0 0.00936291 783 0 0 0 15.3659 
496 0 0 0.0116938 783 0 0 0 15.3794 
497 0 0 0.00947841 783 0 0 0 15.3929 
498 0 0 0.00487122 783 0 0 0 15.4065 
499 0 0 0.00233166 783 0 0 0 15.42 
500 0 0 0.00125415 783 0 0 0 15.4335 
501 0 0 0 783 0 0 0 15.447 
502 0 0 0 783 0 0 0 15.4605 
503 0 0 0 783 0 0 0 15.474 
504 0 0 0 783 0 0 0 15.4875 
505 0 0 0 783 0 0 0 15.501 
506 0 0 3.75e-005 783 0 0 0 15.5144 
507 0 0 0 783 0 0 0 15.5279 
508 0 0 0 783 0 0 0 15.5413 
509 0 0 0.000565534 783 0 0 0 15.5548 
510 0 0 0.000555056 783 0 0 0 15.5682 
511 0 0 0.000661251 783 0 0 0 15.5817 
512 0 0 0.00110875 783 0 0 0 15.5951 
513 0 0 0.00198766 783 0 0 0 15.6085 
514 0 0 0.00270205 783 0 0 0 15.6219 
515 0 0 0.00497367 783 0 0 0 15.6353 
516 0 0 0.00463839 783 0 0 0 15.6487 
517 0 0 0.0035302 783 0 0 0 15.6621 
518 0 0 0.00529031 783 0 0 0 15.6755 
519 0 0 0.00666826 783 0 0 0 15.6889 
520 0 0 0.00543883 783 0 0 0 15.7022 
521 0 0 0.0027608 783 0 0 0 15.7156 
522 0 0 0.000455381 783 0 0 0 15.7289 
523 0 0 0 783 0 0 0 15.7423 
524 0 0 0 783 0 0 0 15.7556 
525 0 0 0 783 0 0 0 15.7689 
526 0 0 0 783 0 0 0 15.7822 
527 0 0 0 783 0 0 0 15.7955 
528 0 0 0 783 0 0 0 15.8088 
529 0 0 0.000607651 783 0 0 0 15.8221 
530 0 0 0.000411188 783 0 0 0 15.8354 
531 0 0 0.000668944 783 0 0 0 15.8487 
532 0 0 0.000481914 783 0 0 0 15.862 
533 0 0 0.00123632 783 0 0 0 15.8752 
534 0 0 0.00078286 783 0 0 0 15.8885 
535 0 0 0.000770629 783 0 0 0 15.9017 
536 0 0 0.00127451 783 0 0 0 15.915 
537 0 0 0.00280635 783 0 0 0 15.9282 
538 0 0 0.0066357 783 0 0 0 15.9414 
539 0 0 0.0107911 783 0 0 0 15.9546 
540 0 0 0.0130164 783 0 0 0 15.9678 
541 0 0 0.0144151 783 0 0 0 15.981 
542 0 0 0.0152962 783 0 0 0 15.9942 
543 0 0 0.0156896 783 0 0 0 16.0074 
544 0 0 0.00560994 783 0 0 0 16.0205 
545 0 0 0.00416033 783 0 0 0 16.0337 
546 0 0 0.00196679 783 0 0 0 16.0468 
547 0 0 0.00251682 783 0 0 0 16.06 
548 0 0 0.000600349 783 0 0 0 16.0731 
548.287 2.41087 0 0.000601364 783 0 0 0 16.0862 
550 0 0 0 783 0 0 0 16.0994 
551 0 0 0.000702759 783 0 0 0 16.1125 
552 0 0 0 783 0 0 0 16.1256 
553 0 0 0 783 0 0 0 16.1387 
554 0 0 0.00173322 783 0 0 0 16.1517 
555 0 0 0 783 0 0 0 16.1648 
556 0 0 0.000312034 783 0 0 0 16.1779 
557 0 0 0.0024095 783 0 0 0 16.1909 
558 0 0 0.0010222 783 0 0 0 16.204 
559 0 0 0.00181096 783 0 0 0 16.217 
560 0 0 0.003789 783 0 0 0 16.2301 
561 0 0 0.00676443 783 0 0 0 16.2431 
562 0 0 0.00987653 783 0 0 0 16.2561 
563 0 0 0.0131845 783 0 0 0 16.2691 
564 0 0 0.0138044 783 0 0 0 16.2821 
565 0 0 0.0166998 783 0 0 0 16.2951 
566 0 0 0.0173824 783 0 0 0 16.308 
567 0 0 0.0135107 783 0 0 0 16.321 
568 0 0 0.0162132 783 0 0 0 16.334 
569 0 0 0.0137245 783 0 0 0 16.3469 
570 0 0 0.0114563 783 0 0 0 16.3599 
571 0 0 0.00776699 783 0 0 0 16.3728 
572 0 0 0.00404739 783 0 0 0 16.3857 
573 0 0 0 783 0 0 0 16.3986 
574 0 0 0 783 0 0 0 16.4115 
575 0 0 0.000394493 783 0 0 0 16.4244 
576 0 0 0.00156093 783 0 0 0 16.4373 
577 0 0 0.000347868 783 0 0 0 16.4502 
578 0 0 0 783 0 0 0 16.463 
579 0 0 0 783 0 0 0 16.4759 
580 0 0 0 783 0 0 0 16.4887 
581 0 0 0.00115404 783 0 0 0 16.5016 
582 0 0 0.00128683 783 0 0 0 16.5144 
583 0 0 0.00180672 783 0 0 0 16.5272 
584 0 0 0.00378618 783 0 0 0 16.54 
584.594 2.41087 0 0.00687894 783 0 0 0 16.5528 
586 0 0 0.0113034 783 0 0 0 16.5656 
587 0 0 0.0150153 783 0 0 0 16.5784 
588 0 0 0.0153231 783 0 0 0 16.5912 
589 0 0 0.016226 783 0 0 0 16.6039 
590 0 0 0.0127936 783 0 0 0 16.6167 
591 0 0 0.0190556 783 0 0 0 16.6294 
592 0 0 0.0138058 783 0 0 0 16.6422 
593 0 0 0.0106643 783 0 0 0 16.6549 
594 0 0 0.00621813 783 0 0 0 16.6676 
595 0 0 0.00327639 783 0 0 0 16.6803 
596 0 0 0.00340116 783 0 0 0 16.693 
597 0 0 0.0016537 783 0 0 0 16.7057 
598 0 0 0 783 0 0 0 16.7184 
599 0 0 0 783 0 0 0 16.731 
600 0 0 0 783 0 0 0 16.7437 
601 0 0 0 783 0 0 0 16.7563 
602 0 0 0 783 0 0 0 16.769 
603 0 0 0 783 0 0 0 16.7816 
604 0 0 0 783 0 0 0 16.7942 
605 0 0 0.000898497 783 0 0 0 16.8068 
606 0 0 0.000916193 783 0 0 0 16.8194 
607 0 0 0.00138002 783 0 0 0 16.832 
608 0 0 0.00389936 783 0 0 0 16.8446 
609 0 0 0.00681167 783 0 0 0 16.8571 
610 0 0 0.0102866 783 0 0 0 16.8697 
611 0 0 0.0133047 783 0 0 0 16.8822 
612 0 0 0.0157096 783 0 0 0 16.8948 
613 0 0 0.0175945 783 0 0 0 16.9073 
614 0 0 0.0184943 783 0 0 0 16.9198 
615 0 0 0.0175248 783 0 0 0 16.9323 
616 0 0 0.0142695 783 0 0 0 16.9448 
617 0 0 0.0111321 783 0 0 0 16.9573 
618 0 0 0.00862936 783 0 0 0 16.9698 
619 0 0 0.00392477 783 0 0 0 16.9822 
620 0 0 0.000345692 783 0 0 0 16.9947 
621 0 0 0 783 0 0 0 17.0071 
621.276 2.41087 0 0 783 0 0 0 17.0196 
623 0 0 0 783 0 0 0 17.032 
624 0 0 0 783 0 0 0 17.0444 
625 0 0 0 783 0 0 0 17.0568 
626 0 0 0 783 0 0 0 17.0692 
627 0 0 0 783 0 0 0 17.0816 
628 0 0 0 783 0 0 0 17.094 
629 0 0 0.000974254 783 0 0 0 17.1063 
630 0 0 0.001574 783 0 0 0 17.1187 
631 0 0 0.00349497 783 0 0 0 17.131 
632 0 0 0.00441578 783 0 0 0 17.1433 
633 0 0 0.00685985 783 0 0 0 17.1557 
634 0 0 0.0122142 783 0 0 0 17.168 
635 0 0 0.0145165 783 0 0 0 17.1803 
636 0 0 0.0161841 783 0 0 0 17.1926 
637 0 0 0.017841 783 0 0 0 17.2048 
638 0 0 0.0112335 783 0 0 0 17.2171 
639 0 0 0.00506556 783 0 0 0 17.2294 
640 0 0 0.00423465 783 0 0 0 17.2416 
641 0 0 0.00519449 783 0 0 0 17.2538 
642 0 0 0.00263773 783 0 0 0 17.2661 
643 0 0 0.00254928 783 0 0 0 17.2783 
644 0 0 0.000487269 783 0 0 0 17.2905 
645 0 0 0 783 0 0 0 17.3027 
646 0 0 0 783 0 0 0 17.3149 
647 0 0 0 783 0 0 0 17.327 
648 0 0 0 783 0 0 0 17.3392 
649 0 0 0 783 0 0 0 17.3513 
650 0 0 0 783 0 0 0 17.3635 
651 0 0 0 783 0 0 0 17.3756 
652 0 0 0 783 0 0 0 17.3877 
653 0 0 0.000665071 783 0 0 0 17.3998 
654 0 0 0.000743409 783 0 0 0 17.4119 
655 0 0 0.00136683 783 0 0 0 17.424 
656 0 0 0.00389687 783 0 0 0 17.4361 
657 0 0 0.0071199 783 0 0 0 17.4482 
658 0 0 0.0102221 783 0 0 0 17.4602 
659 0 0 0.0129693 783 0 0 0 17.4722 
660 0 0 0.0154361 783 0 0 0 17.4843 
661 0 0 0.0166436 783 0 0 0 17.4963 
662 0 0 0.0182571 783 0 0 0 17.5083 
663 0 0 0.0152166 783 0 0 0 17.5203 
664 0 0 0.0134199 783 0 0 0 17.5323 
665 0 0 0.0127494 783 0 0 0 17.5443 
666 0 0 0.00714104 783 0 0 0 17.5562 
666.597 2.41087 0 0.00167373 783 0 0 0 17.5682 
668 0 0 0 783 0 0 0 17.5801 
669 0 0 0 783 0 0 0 17.5921 
670 0 0 0.000734214 783 0 0 0 17.604 
671 0 0 0 783 0 0 0 17.6159 
672 0 0 0 783 0 0 0 17.6278 
673 0 0 0 783 0 0 0 17.6397 
674 0 0 0 783 0 0 0 17.6515 
675 0 0 0 783 0 0 0 17.6634 
676 0 0 0 783 0 0 0 17.6753 
677 0 0 0.000705331 783 0 0 0 17.6871 
678 0 0 0.000771378 783 0 0 0 17.6989 
679 0 0 0.00169715 783 0 0 0 17.7108 
680 0 0 0.00477355 783 0 0 0 17.7226 
681 0 0 0.00739153 783 0 0 0 17.7344 
682 0 0 0.0111497 783 0 0 0 17.7461 
683 0 0 0.0143486 783 0 0 0 17.7579 
684 0 0 0.0169431 783 0 0 0 17.7697 
685 0 0 0.0182798 783 0 0 0 17.7814 
686 0 0 0.0192472 783 0 0 0 17.7932 
687 0 0 0.0193877 783 0 0 0 17.8049 
688 0 0 0.0177151 783 0 0 0 17.8166 
689 0 0 0.015647 783 0 0 0 17.8283 
690 0 0 0.0119037 783 0 0 0 17.84 
691 0 0 0.00635591 783 0 0 0 17.8517 
692 0 0 0.00373796 783 0 0 0 17.8634 
693 0 0 0.000915088 783 0 0 0 17.875 
694 0 0 0.000250273 783 0 0 0 17.8867 
695 0 0 0 783 0 0 0 17.8983 
696 0 0 0 783 0 0 0 17.9099 
697 0 0 0 783 0 0 0 17.9216 
698 0 0 0 783 0 0 0 17.9332 
699 0 0 0 783 0 0 0 17.9448 
700 0 0 0 783 0 0 0 17.9563 
701 0 0 0.00079364 783 0 0 0 17.9679 
702 0 0 0.00119689 783 0 0 0 17.9795 
703 0 0 0.00142687 783 0 0 0 17.991 
704 0 0 0.00349619 783 0 0 0 18.0025 
705 0 0 0.00625159 783 0 0 0 18.0141 
706 0 0 0.0108034 783 0 0 0 18.0256 
707 0 0 0.010009 783 0 0 0 18.0371 
708 0 0 0.0135457 783 0 0 0 18.0486 
709 0 0 0.0156718 783 0 0 0 18.06 
710 0 0 0.0201174 783 0 0 0 18.0715 
711 0 0 0.0193886 783 0 0 0 18.0829 
712 0 0 0.0133504 783 0 0 0 18.0944 
713 0 0 0.0120936 783 0 0 0 18.1058 
714 0 0 0.00527922 783 0 0 0 18.1172 
715 0 0 0.00250167 783 0 0 0 18.1286 
716 0 0 0.00139318 783 0 0 0 18.14 
717 0 0 0 783 0 0 0 18.1514 
718 0 0 0 783 0 0 0 18.1628 
719 0 0 2.36e-005 783 0 0 0 18.1741 
720 0 0 0 783 0 0 0 18.1855 
721 0 0 0 783 0 0 0 18.1968 
722 0 0 0 783 0 0 0 18.2081 
723 0 0 0 783 0 0 0 18.2194 
724 0 0 0 783 0 0 0 18.2307 
725 0 0 0.00101889 783 0 0 0 18.242 
726 0 0 0.000800922 783 0 0 0 18.2533 
727 0 0 0.00192769 783 0 0 0 18.2646 
728 0 0 0.00495708 783 0 0 0 18.2758 
729 0 0 0.00863972 783 0 0 0 18.2871 
730 0 0 0.0126029 783 0 0 0 18.2983 
731 0 0 0.0158303 783 0 0 0 18.3095 
732 0 0 0.0192408 783 0 0 0 18.3207 
733 0 0 0.0217779 783 0 0 0 18.3319 
734 0 0 0.0130374 783 0 0 0 18.3431 
735 0 0 0.00900885 783 0 0 0 18.3542 
736 0 0 0.00813047 783 0 0 0 18.3654 
737 0 0 0.00840772 783 0 0 0 18.3765 
738 0 0 0.00493377 783 0 0 0 18.3877 
739 0 0 0.00112498 783 0 0 0 18.3988 
739.597 2.41087 0 0.000893906 783 0 0 0 18.4099 
741 0 0 0 783 0 0 0 18.421 
742 0 0 0 783 0 0 0 18.4321 
743 0 0 0 783 0 0 0 18.4432 
744 0 0 0 783 0 0 0 18.4542 
745 0 0 0 783 0 0 0 18.4653 
746 0 0 0 783 0 0 0 18.4763 
747 0 0 0 783 0 0 0 18.4873 
748 0 0 0 783 0 0 0 18.4983 
749 0 0 0.000806489 783 0 0 0 18.5093 
750 0 0 0.000773675 783 0 0 0 18.5203 
751 0 0 0.00144911 783 0 0 0 18.5313 
752 0 0 0.00394822 783 0 0 0 18.5423 
753 0 0 0.00682772 783 0 0 0 18.5532 
754 0 0 0.0124169 783 0 0 0 18.5642 
755 0 0 0.0162181 783 0 0 0 18.5751 
756 0 0 0.0199841 783 0 0 0 18.586 
757 0 0 0.0152233 783 0 0 0 18.5969 
758 0 0 0.0150503 783 0 0 0 18.6078 
759 0 0 0.0113697 783 0 0 0 18.6187 
760 0 0 0.00881832 783 0 0 0 18.6295 
761 0 0 0.0136658 783 0 0 0 18.6404 
762 0 0 0.0127145 783 0 0 0 18.6512 
763 0 0 0.00581801 783 0 0 0 18.6621 
764 0 0 0.00233674 783 0 0 0 18.6729 
765 0 0 0 783 0 0 0 18.6837 
766 0 0 0.0014811 783 0 0 0 18.6945 
767 0 0 0 783 0 0 0 18.7053 
768 0 0 0 783 0 0 0 18.716 
769 0 0 0 783 0 0 0 18.7268 
770 0 0 0 783 0 0 0 18.7375 
771 0 0 0 783 0 0 0 18.7483 
772 0 0 0 783 0 0 0 18.759 
773 0 0 0.00120833 783 0 0 0 18.7697 
774 0 0 0.000709927 783 0 0 0 18.7804 
775 0 0 0.00189017 783 0 0 0 18.7911 
776 0 0 0.00509643 783 0 0 0 18.8017 
777 0 0 0.00808579 783 0 0 0 18.8124 
778 0 0 0.0133399 783 0 0 0 18.823 
778.597 2.41087 0 0.0172318 783 0 0 0 18.8337 
780 0 0 0.0178342 783 0 0 0 18.8443 
781 0 0 0.0189062 783 0 0 0 18.8549 
782 0 0 0.0212467 783 0 0 0 18.8655 
783 0 0 0.0194554 783 0 0 0 18.8761 
784 0 0 0.0193655 783 0 0 0 18.8867 
785 0 0 0.0167327 783 0 0 0 18.8972 
786 0 0 0.012559 783 0 0 0 18.9078 
787 0 0 0.00577324 783 0 0 0 18.9183 
788 0 0 0.00113929 783 0 0 0 18.9288 
789 0 0 0 783 0 0 0 18.9393 
790 0 0 0 783 0 0 0 18.9498 
791 0 0 0 783 0 0 0 18.9603 
792 0 0 0 783 0 0 0 18.9708 
793 0 0 0 783 0 0 0 18.9812 
794 0 0 0 783 0 0 0 18.9917 
795 0 0 0 783 0 0 0 19.0021 
796 0 0 0 783 0 0 0 19.0125 
797 0 0 0.00285745 783 0 0 0 19.023 
798 0 0 0.00346318 783 0 0 0 19.0334 
799 0 0 0.0022976 783 0 0 0 19.0437 
800 0 0 0.00602848 783 0 0 0 19.0541 
801 0 0 0.0104382 783 0 0 0 19.0645 
802 0 0 0.0157063 783 0 0 0 19.0748 
803 0 0 0.0196064 783 0 0 0 19.0852 
804 0 0 0.0232974 783 0 0 0 19.0955 
805 0 0 0.0267668 783 0 0 0 19.1058 
806 0 0 0.0250476 783 0 0 0 19.1161 
807 0 0 0.0262309 783 0 0 0 19.1264 
808 0 0 0.0181436 783 0 0 0 19.1367 
809 0 0 0.0134171 783 0 0 0 19.1469 
810 0 0 0.0110842 783 0 0 0 19.1572 