Pcp_File_Version=4
      1
Welcome to HYDRUS-1D
  
   NOBB     MIT iWeight
   1529       0       0
  lWatF  lChemF    NMat   lTempF
      t       f       1       f
  Model   Hysteresis
      0       0
    thr     ths    Alfa       n         Ks       l
  0.084  0.3379   0.124    1.85      60.13     0.5 
      1       0       1       1          1       0 
      0    0.25   0.001     1.1        0.1       0 
   0.15    0.45    0.15       3        100       0 
      HO(N)         FOS   ITYPE(N) POS     WTS
         721     0.119356     2     1        1 
         722     0.118286     2     1        1 
         723     0.117363     2     1        1 
         724     0.116932     2     1        1 
         725     0.116428     2     1        1 
         726     0.115929     2     1        1 
         727     0.115431     2     1        1 
         728     0.116071     2     1        1 
         729     0.117499     2     1        1 
         730     0.118349     2     1        1 
         731     0.119471     2     1        1 
         732     0.119521     2     1        1 
         733     0.118922     2     1        1 
         734      0.11888     2     1        1 
         735     0.113849     2     1        1 
         736     0.112539     2     1        1 
         737     0.112804     2     1        1 
         738     0.111065     2     1        1 
         739     0.109183     2     1        1 
         740      0.19299     2     1        1 
         741     0.226706     2     1        1 
         742     0.215475     2     1        1 
         743      0.21171     2     1        1 
         744     0.208839     2     1        1 
         745      0.20694     2     1        1 
         746     0.205041     2     1        1 
         747     0.203766     2     1        1 
         748     0.202633     2     1        1 
         749     0.201584     2     1        1 
         750     0.200375     2     1        1 
         751     0.199609     2     1        1 
         752     0.199042     2     1        1 
         753     0.198817     2     1        1 
         754     0.198507     2     1        1 
         755     0.197213     2     1        1 
         756      0.19489     2     1        1 
         757     0.191459     2     1        1 
         758     0.187184     2     1        1 
         759     0.185701     2     1        1 
         760     0.179304     2     1        1 
         761     0.176142     2     1        1 
         762     0.175075     2     1        1 
         763     0.170643     2     1        1 
         764     0.166423     2     1        1 
         765     0.163471     2     1        1 
         766     0.161859     2     1        1 
         767     0.160242     2     1        1 
         768     0.158972     2     1        1 
         769     0.157916     2     1        1 
         770     0.157354     2     1        1 
         771     0.156649     2     1        1 
         772     0.156229     2     1        1 
         773     0.155314     2     1        1 
         774     0.155034     2     1        1 
         775     0.154754     2     1        1 
         776     0.155034     2     1        1 
         777      0.15616     2     1        1 
         778     0.156718     2     1        1 
         779     0.228972     2     1        1 
         780     0.239826     2     1        1 
         781     0.229784     2     1        1 
         782     0.224177     2     1        1 
         783     0.220191     2     1        1 
         784     0.218255     2     1        1 
         785     0.212234     2     1        1 
         786     0.207354     2     1        1 
         787     0.203571     2     1        1 
         788     0.200276     2     1        1 
         789     0.198599     2     1        1 
         790     0.197833     2     1        1 
         791     0.197203     2     1        1 
         792     0.196856     2     1        1 
         793     0.195659     2     1        1 
         794      0.19538     2     1        1 
         795     0.195101     2     1        1 
         796     0.194749     2     1        1 
         797     0.194612     2     1        1 
         798     0.194049     2     1        1 
         799     0.193204     2     1        1 
         800     0.193272     2     1        1 
         801     0.195389     2     1        1 
         802     0.192985     2     1        1 
         803     0.188336     2     1        1 
         804     0.183758     2     1        1 
         805     0.178392     2     1        1 
         806      0.17294     2     1        1 
         807     0.168677     2     1        1 
         808     0.163272     2     1        1 
         809     0.157862     2     1        1 
         810     0.152438     2     1        1 
         811     0.149725     2     1        1 
         812     0.147436     2     1        1 
         813     0.145569     2     1        1 
         814     0.143566     2     1        1 
         815     0.142634     2     1        1 
         816      0.14177     2     1        1 
         817      0.14098     2     1        1 
         818     0.140122     2     1        1 
         819     0.139265     2     1        1 
         820     0.138832     2     1        1 
         821     0.137757     2     1        1 
         822     0.137183     2     1        1 
         823     0.136533     2     1        1 
         824      0.17707     2     1        1 
         825     0.207112     2     1        1 
         826     0.204305     2     1        1 
         827     0.200748     2     1        1 
         828     0.196155     2     1        1 
         829     0.191367     2     1        1 
         830     0.187137     2     1        1 
         831     0.182986     2     1        1 
         832     0.177898     2     1        1 
         833     0.172044     2     1        1 
         834     0.166278     2     1        1 
         835     0.159937     2     1        1 
         836     0.155353     2     1        1 
         837     0.151752     2     1        1 
         838     0.149914     2     1        1 
         839     0.148995     2     1        1 
         840     0.148358     2     1        1 
         841     0.147509     2     1        1 
         842     0.146519     2     1        1 
         843     0.145883     2     1        1 
         844     0.145034     2     1        1 
         845      0.14298     2     1        1 
         846     0.141705     2     1        1 
         847     0.140996     2     1        1 
         848     0.141067     2     1        1 
         849     0.146875     2     1        1 
         850     0.150982     2     1        1 
         851     0.150983     2     1        1 
         852     0.149567     2     1        1 
         853     0.147579     2     1        1 
         854     0.145376     2     1        1 
         855     0.145364     2     1        1 
         856     0.143798     2     1        1 
         857     0.140814     2     1        1 
         858      0.13647     2     1        1 
         859     0.130983     2     1        1 
         860     0.126413     2     1        1 
         861     0.127115     2     1        1 
         862     0.198383     2     1        1 
         863     0.203041     2     1        1 
         864     0.199789     2     1        1 
         865     0.197176     2     1        1 
         866     0.193997     2     1        1 
         867     0.192019     2     1        1 
         868     0.190188     2     1        1 
         869     0.188634     2     1        1 
         870     0.186871     2     1        1 
         871      0.18539     2     1        1 
         872     0.184399     2     1        1 
         873     0.184663     2     1        1 
         874     0.184715     2     1        1 
         875     0.183655     2     1        1 
         876     0.180559     2     1        1 
         877     0.176058     2     1        1 
         878     0.172186     2     1        1 
         879     0.168879     2     1        1 
         880     0.164213     2     1        1 
         881     0.157138     2     1        1 
         882     0.149354     2     1        1 
         883     0.141133     2     1        1 
         884     0.150478     2     1        1 
         885     0.201963     2     1        1 
         886     0.199891     2     1        1 
         887     0.196439     2     1        1 
         888     0.193553     2     1        1 
         889     0.191091     2     1        1 
         890     0.188837     2     1        1 
         891     0.186584     2     1        1 
         892     0.184896     2     1        1 
         893     0.183066     2     1        1 
         894     0.181729     2     1        1 
         895     0.180528     2     1        1 
         896      0.17961     2     1        1 
         897     0.179666     2     1        1 
         898     0.179014     2     1        1 
         899     0.175546     2     1        1 
         900      0.17026     2     1        1 
         901     0.164556     2     1        1 
         902     0.158705     2     1        1 
         903     0.152926     2     1        1 
         904     0.147065     2     1        1 
         905     0.141835     2     1        1 
         906     0.137381     2     1        1 
         907     0.133771     2     1        1 
         908     0.201459     2     1        1 
         909     0.210029     2     1        1 
         910     0.205617     2     1        1 
         911     0.202593     2     1        1 
         912     0.199918     2     1        1 
         913     0.197459     2     1        1 
         914       0.1957     2     1        1 
         915     0.194291     2     1        1 
         916      0.19274     2     1        1 
         917      0.19154     2     1        1 
         918     0.190198     2     1        1 
         919     0.189072     2     1        1 
         920     0.188148     2     1        1 
         921     0.187357     2     1        1 
         922     0.185992     2     1        1 
         923     0.182958     2     1        1 
         924     0.178991     2     1        1 
         925     0.174055     2     1        1 
         926     0.168633     2     1        1 
         927     0.162358     2     1        1 
         928       0.1556     2     1        1 
         929     0.150883     2     1        1 
         930     0.148699     2     1        1 
         931     0.146226     2     1        1 
         932     0.143972     2     1        1 
         933     0.142778     2     1        1 
         934     0.141372     2     1        1 
         935     0.140598     2     1        1 
         936     0.139679     2     1        1 
         937     0.139398     2     1        1 
         938     0.138482     2     1        1 
         939     0.137707     2     1        1 
         940      0.13686     2     1        1 
         941     0.136437     2     1        1 
         942     0.135801     2     1        1 
         943     0.134881     2     1        1 
         944     0.135237     2     1        1 
         945     0.135798     2     1        1 
         946      0.13629     2     1        1 
         947     0.135234     2     1        1 
         948     0.134042     2     1        1 
         949     0.132281     2     1        1 
         950     0.132142     2     1        1 
         951      0.13263     2     1        1 
         952     0.133185     2     1        1 
         953     0.130342     2     1        1 
         954      0.12578     2     1        1 
         955     0.135561     2     1        1 
         956     0.225809     2     1        1 
         957     0.216263     2     1        1 
         958     0.212842     2     1        1 
         959     0.210318     2     1        1 
         960     0.206675     2     1        1 
         961     0.204007     2     1        1 
         962     0.201546     2     1        1 
         963      0.19986     2     1        1 
         964     0.198187     2     1        1 
         965     0.198909     2     1        1 
         966     0.211753     2     1        1 
         967     0.222475     2     1        1 
         968     0.239519     2     1        1 
         969     0.236149     2     1        1 
         970     0.231126     2     1        1 
         971     0.228896     2     1        1 
         972     0.226823     2     1        1 
         973     0.224427     2     1        1 
         974     0.221163     2     1        1 
         975     0.219018     2     1        1 
         976     0.215237     2     1        1 
         977     0.209621     2     1        1 
         978     0.206478     2     1        1 
         979     0.203881     2     1        1 
         980     0.202633     2     1        1 
         981     0.200818     2     1        1 
         982     0.200051     2     1        1 
         983     0.199568     2     1        1 
         984     0.198942     2     1        1 
         985     0.198384     2     1        1 
         986     0.200576     2     1        1 
         987     0.204876     2     1        1 
         988     0.210509     2     1        1 
         989     0.209251     2     1        1 
         990     0.208485     2     1        1 
         991     0.207359     2     1        1 
         992     0.205601     2     1        1 
         993     0.204176     2     1        1 
         994     0.203084     2     1        1 
         995     0.200409     2     1        1 
         996     0.196632     2     1        1 
         997      0.19329     2     1        1 
         998     0.190082     2     1        1 
         999     0.187291     2     1        1 
        1000     0.181728     2     1        1 
        1001     0.174956     2     1        1 
        1002     0.168606     2     1        1 
        1003     0.161745     2     1        1 
        1004     0.158773     2     1        1 
        1005     0.156013     2     1        1 
        1006     0.154738     2     1        1 
        1007      0.15403     2     1        1 
        1008     0.153038     2     1        1 
        1009     0.152967     2     1        1 
        1010     0.152754     2     1        1 
        1011       0.1524     2     1        1 
        1012     0.152258     2     1        1 
        1013     0.151549     2     1        1 
        1014     0.151124     2     1        1 
        1015     0.150983     2     1        1 
        1016      0.15162     2     1        1 
        1017     0.152046     2     1        1 
        1018     0.151975     2     1        1 
        1019     0.157074     2     1        1 
        1020     0.237079     2     1        1 
        1021     0.222263     2     1        1 
        1022     0.215476     2     1        1 
        1023     0.210365     2     1        1 
        1024     0.205382     2     1        1 
        1025     0.199754     2     1        1 
        1026     0.194407     2     1        1 
        1027     0.190476     2     1        1 
        1028     0.188309     2     1        1 
        1029     0.187259     2     1        1 
        1030     0.186409     2     1        1 
        1031     0.185709     2     1        1 
        1032     0.185075     2     1        1 
        1033     0.184233     2     1        1 
        1034     0.183748     2     1        1 
        1035     0.182764     2     1        1 
        1036     0.182481     2     1        1 
        1037     0.182906     2     1        1 
        1038     0.183055     2     1        1 
        1039     0.183129     2     1        1 
        1040     0.183197     2     1        1 
        1041     0.182764     2     1        1 
        1042     0.182056     2     1        1 
        1043     0.181348     2     1        1 
        1044     0.180706     2     1        1 
        1045     0.176963     2     1        1 
        1046     0.171856     2     1        1 
        1047     0.168439     2     1        1 
        1048     0.164299     2     1        1 
        1049     0.158945     2     1        1 
        1050     0.152526     2     1        1 
        1051     0.145244     2     1        1 
        1052     0.140925     2     1        1 
        1053     0.137808     2     1        1 
        1054     0.135894     2     1        1 
        1055     0.134973     2     1        1 
        1056     0.133697     2     1        1 
        1057     0.133414     2     1        1 
        1058     0.132989     2     1        1 
        1059     0.132847     2     1        1 
        1060      0.13228     2     1        1 
        1061     0.132068     2     1        1 
        1062     0.131571     2     1        1 
        1063     0.131288     2     1        1 
        1064     0.192194     2     1        1 
        1065     0.219646     2     1        1 
        1066     0.210968     2     1        1 
        1067     0.206028     2     1        1 
        1068      0.20216     2     1        1 
        1069     0.197953     2     1        1 
        1070     0.193254     2     1        1 
        1071     0.188354     2     1        1 
        1072     0.182233     2     1        1 
        1073     0.172584     2     1        1 
        1074     0.163154     2     1        1 
        1075     0.160612     2     1        1 
        1076      0.15877     2     1        1 
        1077     0.157219     2     1        1 
        1078     0.155458     2     1        1 
        1079     0.154122     2     1        1 
        1080     0.152645     2     1        1 
        1081      0.15145     2     1        1 
        1082     0.150323     2     1        1 
        1083     0.149338     2     1        1 
        1084     0.148494     2     1        1 
        1085     0.147502     2     1        1 
        1086     0.147428     2     1        1 
        1087     0.147287     2     1        1 
        1088     0.146437     2     1        1 
        1089      0.14643     2     1        1 
        1090     0.145088     2     1        1 
        1091     0.142561     2     1        1 
        1092     0.139558     2     1        1 
        1093     0.137194     2     1        1 
        1094     0.135243     2     1        1 
        1095     0.132848     2     1        1 
        1096      0.12945     2     1        1 
        1097     0.125972     2     1        1 
        1098     0.123414     2     1        1 
        1099     0.121993     2     1        1 
        1100     0.120433     2     1        1 
        1101     0.120217     2     1        1 
        1102     0.127583     2     1        1 
        1103     0.132117     2     1        1 
        1104     0.132825     2     1        1 
        1105     0.132542     2     1        1 
        1106     0.132117     2     1        1 
        1107     0.130983     2     1        1 
        1108     0.129283     2     1        1 
        1109     0.127511     2     1        1 
        1110     0.125598     2     1        1 
        1111     0.124392     2     1        1 
        1112     0.122759     2     1        1 
        1113     0.129278     2     1        1 
        1114     0.234711     2     1        1 
        1115     0.233434     2     1        1 
        1116     0.221115     2     1        1 
        1117      0.21601     2     1        1 
        1118     0.212201     2     1        1 
        1119     0.208884     2     1        1 
        1120     0.203283     2     1        1 
        1121     0.196811     2     1        1 
        1122     0.196541     2     1        1 
        1123     0.197742     2     1        1 
        1124     0.195212     2     1        1 
        1125     0.193384     2     1        1 
        1126     0.191702     2     1        1 
        1127     0.190648     2     1        1 
        1128     0.189946     2     1        1 
        1129     0.190512     2     1        1 
        1130      0.18981     2     1        1 
        1131     0.189249     2     1        1 
        1132     0.188404     2     1        1 
        1133     0.187979     2     1        1 
        1134     0.188194     2     1        1 
        1135     0.188058     2     1        1 
        1136     0.187911     2     1        1 
        1137      0.18769     2     1        1 
        1138     0.187197     2     1        1 
        1139     0.184179     2     1        1 
        1140     0.179124     2     1        1 
        1141     0.173636     2     1        1 
        1142     0.168692     2     1        1 
        1143      0.16493     2     1        1 
        1144     0.159742     2     1        1 
        1145     0.153913     2     1        1 
        1146     0.148078     2     1        1 
        1147     0.141393     2     1        1 
        1148     0.137547     2     1        1 
        1149     0.134833     2     1        1 
        1150     0.167594     2     1        1 
        1151     0.217007     2     1        1 
        1152     0.212359     2     1        1 
        1153     0.210201     2     1        1 
        1154     0.208167     2     1        1 
        1155     0.207123     2     1        1 
        1156     0.205647     2     1        1 
        1157     0.204595     2     1        1 
        1158     0.203469     2     1        1 
        1159     0.202208     2     1        1 
        1160     0.201783     2     1        1 
        1161     0.200501     2     1        1 
        1162     0.199644     2     1        1 
        1163     0.196622     2     1        1 
        1164     0.191645     2     1        1 
        1165     0.186115     2     1        1 
        1166     0.181134     2     1        1 
        1167     0.175843     2     1        1 
        1168     0.169753     2     1        1 
        1169     0.162944     2     1        1 
        1170     0.155417     2     1        1 
        1171     0.147818     2     1        1 
        1172     0.143339     2     1        1 
        1173     0.140703     2     1        1 
        1174     0.139063     2     1        1 
        1175     0.137993     2     1        1 
        1176     0.137211     2     1        1 
        1177     0.136278     2     1        1 
        1178     0.135706     2     1        1 
        1179     0.134635     2     1        1 
        1180     0.134136     2     1        1 
        1181     0.134063     2     1        1 
        1182     0.133422     2     1        1 
        1183     0.132924     2     1        1 
        1184     0.133139     2     1        1 
        1185     0.133643     2     1        1 
        1186     0.134148     2     1        1 
        1187     0.132516     2     1        1 
        1188     0.130509     2     1        1 
        1189     0.129345     2     1        1 
        1190     0.128177     2     1        1 
        1191     0.126373     2     1        1 
        1192     0.123441     2     1        1 
        1193     0.121583     2     1        1 
        1194     0.121574     2     1        1 
        1195     0.118865     2     1        1 
        1196     0.155307     2     1        1 
        1197      0.22901     2     1        1 
        1198      0.21969     2     1        1 
        1199     0.216126     2     1        1 
        1200     0.215026     2     1        1 
        1201     0.213707     2     1        1 
        1202     0.212596     2     1        1 
        1203     0.211342     2     1        1 
        1204     0.210364     2     1        1 
        1205     0.209386     2     1        1 
        1206     0.208123     2     1        1 
        1207     0.207427     2     1        1 
        1208     0.206657     2     1        1 
        1209      0.20448     2     1        1 
        1210     0.202298     2     1        1 
        1211     0.198643     2     1        1 
        1212     0.193155     2     1        1 
        1213     0.186604     2     1        1 
        1214     0.180732     2     1        1 
        1215     0.174549     2     1        1 
        1216     0.167433     2     1        1 
        1217     0.160317     2     1        1 
        1218     0.152915     2     1        1 
        1219     0.145803     2     1        1 
        1220     0.141676     2     1        1 
        1221     0.139322     2     1        1 
        1222     0.137676     2     1        1 
        1223     0.136387     2     1        1 
        1224     0.135529     2     1        1 
        1225     0.134881     2     1        1 
        1226     0.134172     2     1        1 
        1227      0.13374     2     1        1 
        1228     0.133031     2     1        1 
        1229     0.132457     2     1        1 
        1230     0.132024     2     1        1 
        1231     0.131666     2     1        1 
        1232     0.131382     2     1        1 
        1233     0.131398     2     1        1 
        1234     0.212142     2     1        1 
        1235     0.237547     2     1        1 
        1236     0.230162     2     1        1 
        1237     0.224417     2     1        1 
        1238     0.218721     2     1        1 
        1239     0.212512     2     1        1 
        1240     0.203792     2     1        1 
        1241     0.194118     2     1        1 
        1242     0.186045     2     1        1 
        1243     0.178173     2     1        1 
        1244     0.172705     2     1        1 
        1245     0.170289     2     1        1 
        1246      0.16915     2     1        1 
        1247     0.168719     2     1        1 
        1248     0.168432     2     1        1 
        1249     0.167862     2     1        1 
        1250      0.16715     2     1        1 
        1251     0.166438     2     1        1 
        1252     0.165795     2     1        1 
        1253     0.165297     2     1        1 
        1254     0.164868     2     1        1 
        1255     0.164581     2     1        1 
        1256     0.163731     2     1        1 
        1257     0.163027     2     1        1 
        1258     0.198531     2     1        1 
        1259      0.23798     2     1        1 
        1260     0.225326     2     1        1 
        1261     0.218273     2     1        1 
        1262     0.211387     2     1        1 
        1263     0.204416     2     1        1 
        1264     0.194717     2     1        1 
        1265     0.183345     2     1        1 
        1266     0.175491     2     1        1 
        1267      0.17032     2     1        1 
        1268     0.166988     2     1        1 
        1269     0.164789     2     1        1 
        1270     0.163511     2     1        1 
        1271      0.16266     2     1        1 
        1272     0.162374     2     1        1 
        1273     0.161096     2     1        1 
        1274     0.160668     2     1        1 
        1275     0.159533     2     1        1 
        1276     0.158964     2     1        1 
        1277     0.158253     2     1        1 
        1278     0.158181     2     1        1 
        1279     0.157753     2     1        1 
        1280     0.157045     2     1        1 
        1281      0.15662     2     1        1 
        1282     0.155131     2     1        1 
        1283     0.163284     2     1        1 
        1284     0.184273     2     1        1 
        1285      0.17794     2     1        1 
        1286     0.169936     2     1        1 
        1287     0.162174     2     1        1 
        1288     0.153449     2     1        1 
        1289     0.144566     2     1        1 
        1290     0.137385     2     1        1 
        1291     0.130846     2     1        1 
        1292     0.127856     2     1        1 
        1293     0.125291     2     1        1 
        1294     0.123863     2     1        1 
        1295     0.122287     2     1        1 
        1296     0.121424     2     1        1 
        1297      0.12042     2     1        1 
        1298     0.119847     2     1        1 
        1299     0.119482     2     1        1 
        1300     0.118558     2     1        1 
        1301     0.118126     2     1        1 
        1302     0.117478     2     1        1 
        1303     0.117478     2     1        1 
        1304     0.117478     2     1        1 
        1305     0.118551     2     1        1 
        1306      0.11899     2     1        1 
        1307     0.119428     2     1        1 
        1308     0.119644     2     1        1 
        1309     0.119415     2     1        1 
        1310     0.121101     2     1        1 
        1311     0.123629     2     1        1 
        1312     0.124531     2     1        1 
        1313     0.122548     2     1        1 
        1314     0.118865     2     1        1 
        1315     0.114957     2     1        1 
        1316     0.112174     2     1        1 
        1317     0.110608     2     1        1 
        1318     0.109108     2     1        1 
        1319     0.107957     2     1        1 
        1320     0.107098     2     1        1 
        1321     0.106022     2     1        1 