Pcp_File_Version=4
* METEOROLOGICAL PARAMETERS AND INFORMATION |||||||||||||||||||||||||||||||
 MeteoRecords Radiation Penman-Hargreaves
         2256        1       f
  lEnBal  lDaily  lDummy  lDummy  lDummy  lDummy  lDummy  lDummy  lDummy  lDummy
       f       f       f       f       f       t       f       f       f       f
 Latitude  Altitude
    37.52       1581
 ShortWaveRadA  ShortWaveRadB
          0.25            0.5
 LongWaveRadA   LongWaveRadB
           0.9            0.1
 LongWaveRadA1  LongWaveRadB1
          0.34         -0.139
 WindHeight     TempHeight
        200            200
 iCrop (=0: no crop, =1: constant, =2: table, =3: daily)  SunShine  RelativeHum
         1                                                3         0
  CloudFactAC    CloudFactBC
          1.35          -0.35
 iLai (=0: given, =1: grass, =2; alfalfa, =3: surface fraction)  rExtinct
    0                                                              0.463
 Interception
    0
CropHeight     Albedo        LAI      rRoot
        30       0.23          2          0
Daily values
       t        Rad        TMax        TMin     RHMean      Wind    SunHours CropHeight     Albedo   LAI(SCF)      rRoot
      [T]  [MJ/m2/d]       [C]         [C]       [%]     [km/d]     [hour]      [L]           [-]        [-]        [L]
         1    0.05184     18.033     15.103      46.55          0          4 
         2    0.05184     17.106     15.151     49.225          0          4 
         3    0.05184     17.177     16.201     44.475       32.4          4 
         4    0.05184     16.749     15.843      41.65     38.016          4 
         5    0.05184     15.676     14.864     44.275     65.448          4 
         6    0.05184      13.57      11.37       54.1       10.8          4 
         7    2.56392     14.457     10.418         58       16.2          4 
         8     11.664     16.844     15.676     42.825    206.712          4 
         9    29.1859     18.985     17.534      36.55    364.392          4 
        10    43.8761      19.77     19.056     32.275    353.592          4 
        11    56.2939     21.103      19.96     29.975    293.976          4 
        12     67.284     21.795     21.056         28    315.792          4 
        13    75.2738     22.465     21.963     26.925    326.592          4 
        14     75.438     23.208     22.154     26.125    304.776          4 
        15     71.658     24.074     22.489     26.325    326.592          4 
        16     60.804     24.122     22.896      26.05    337.392          4 
        17     25.218     23.905     20.126     26.675     446.04          4 
        18    3.10608     17.938     14.768       36.9    690.984          4 
        19    2.62008     14.194     12.292      44.95     603.72          4 
        20    0.94392     11.807     10.492         50    554.904          4 
        21    0.05184      9.706       7.92     66.475    560.304          4 
        22    0.05184      7.619      7.494       70.6    435.024          4 
        23    0.05184       8.17       7.72     61.525    266.544          4 
        24    0.05184      8.469      8.319      55.15    195.912          4 
        25    0.05184       8.02      7.444     62.225    201.312          4 
        26    0.05184      7.393      7.066     63.175    179.712          4 
        27    0.05184      7.268      6.965         64    114.264          4 
        28    0.05184      7.469       6.99     60.875     179.28          4 
        29    0.05184      7.192      5.949       67.5     81.648          4 
        30    0.05184      6.331      4.921       72.7    125.064          4 
        31    0.62208       5.05       4.74     82.025    130.464          4 
        32    3.93984      6.255      5.231     80.525     87.264          4 
        33    9.85392      8.319      6.737       73.7     48.816          4 
        34    21.1702     10.638      8.717      56.95         27          4 
        35    24.0559     10.638     10.149     45.925     43.416          4 
        36    28.0001     11.029     10.736       41.2     87.264          4 
        37    35.2361     12.292     11.127     35.175    125.064          4 
        38    52.6478     13.257     12.461     31.025    190.296          4 
        39     72.576     15.342     13.353         28    250.344          4 
        40    60.0458     16.344     15.127       27.5    255.528          4 
        41    50.4878      17.51     16.582       26.7    271.728          4 
        42    35.2901      18.01     17.344       25.3    277.344          4 
        43    14.4461     17.439      16.82      26.95    282.528          4 
        44    6.13008     16.701     15.151     32.125    152.496          4 
        45    0.18792     14.673     13.618     40.225     48.816          4 
        46    0.05184     13.137      11.88      47.85        5.4          4 
        47    0.05184      12.05     11.005     54.125          0          4 
        48    0.05184     11.078      8.593       58.7          0          4 
        49    0.05184      9.238      8.891       65.3          0          4 
        50    0.05184      8.916      8.568     70.925          0          4 
        51    0.05184      8.941      7.544       72.1          0          4 
        52    0.05184      8.519      7.995     64.775        5.4          4 
        53    0.05184      8.394      7.343      58.45          0          4 
        54    0.05184      7.645      7.268     60.475          0          4 
        55    1.72584       8.99      7.268      60.35        5.4          4 
        56    5.64192      9.731      8.817      61.35     54.432          4 
        57     16.038     11.904     10.075       45.4       16.2          4 
        58    22.3819      13.69     12.437     37.325     70.848          4 
        59    25.2461      14.96     14.146     33.975     81.864          4 
        60    25.9999     16.796     14.984      32.35    114.264          4 
        61     20.088     16.558     16.344      29.55    217.728          4 
        62    25.0841     17.415     16.129     28.575    146.664          4 
        63     14.202     17.344     16.796     23.475    195.912          4 
        64       13.5     16.773     16.272     24.175     136.08          4 
        65    16.0639     16.987     16.534       20.8    304.776          4 
        66     15.282     17.058     16.177      20.85    342.576          4 
        67    7.66584     15.939     15.318      24.75    337.392          4 
        68    4.34808     15.175     14.864      27.45     152.28          4 
        69    0.21384     14.218     13.473       38.7     136.08          4 
        70    0.05184     13.786     13.281      37.15    174.312          4 
        71    0.05184     13.425     13.112     35.525    103.464          4 
        72    0.05184     13.738     13.401      33.05    195.912          4 
        73    0.05184     13.666     13.281     30.725    282.744          4 
        74    0.05184     12.823     11.078     37.875     299.16          4 
        75    0.05184     10.736     10.638     45.675     277.56          4 
        76    0.05184     10.883     10.467      43.95    168.696          4 
        77    0.05184     10.516     10.369     42.375     16.416          4 
        78    0.05184     11.078     10.051       39.6     48.816          4 
        79    2.02392      9.854      9.188     36.175    391.392          4 
        80     10.206     10.418      9.336      28.85    358.992          4 
        81      28.62     12.437      10.59     23.775    435.024          4 
        82     41.742      13.93     12.606      24.65     435.24          4 
        83    51.1942     14.433     13.546      21.35    500.256          4 
        84    59.4259     15.247     14.481       20.2    495.072          4 
        85    67.3099     16.915     15.748      18.55     424.44          4 
        86    75.1399     17.249     16.868     17.775    407.808          4 
        87     67.014     17.605     16.511      15.75    468.072          4 
        88     57.348     17.296     16.701     15.525     429.84          4 
        89    49.7059     17.344     16.963      14.45    413.208          4 
        90     35.694     16.844     15.986     13.475    505.656          4 
        91    20.8721     16.082     14.721     12.475    500.472          4 
        92    8.34192     14.481     13.112     11.925    413.208          4 
        93      0.324     12.558     10.124     13.375    135.864          4 
        94    0.05184      9.163      6.839         20          0          4 
        95    0.05184      6.382      5.024       29.1          0          4 
        96    0.05184      6.204       5.05      29.65          0          4 
        97    0.05184          6      4.558     38.125     76.248          4 
        98    0.05184      4.037      3.116       48.7     70.632          4 
        99    0.05184      3.063      0.934     52.325       10.8          4 
       100    0.05184      2.637       0.77       54.2          0          4 
       101    0.05184      2.477      1.235       51.3          0          4 
       102    0.05184      1.208      0.024     55.775          0          4 
       103      3.996      3.063      0.051      57.65          0          4 
       104    17.9021      8.369      4.402     43.875       16.2          4 
       105    33.5621     13.329      9.903       28.7     59.832          4 
       106     47.844     15.055     14.194      22.95     98.064          4 
       107    60.4519     18.343      16.01       15.9     152.28          4 
       108    72.2542     20.865     19.436       9.85    217.728          4 
       109    80.7581     22.896      20.96       7.95    201.096          4 
       110    80.6479     24.605     23.016        7.6    249.912          4 
       111    74.9801     25.113     24.363      6.325    266.544          4 
       112    64.8799     25.866     24.968      6.075    244.728          4 
       113     49.788     26.573     25.744        6.3    168.696          4 
       114    30.9161     26.158     24.267       7.35    201.096          4 
       115    21.7361     24.992     24.026      8.275    195.912          4 
       116      6.912     23.857     22.058      11.35    168.696          4 
       117    0.26784     21.628     18.081      16.85     32.616          4 
       118    0.05184     17.605       15.7     24.225       16.2          4 
       119    0.05184     14.936     14.361     31.975          0          4 
       120    0.05184     15.223     14.553     34.925        5.4          4 
       121    0.05184     14.649     13.329     38.325        5.4          4 
       122    0.05184      13.81      12.63     41.825       21.6          4 
       123    0.05184     12.968      11.88      45.15       21.6          4 
       124    0.05184     10.736      9.583     53.125          0          4 
       125    0.05184     11.078     10.638       52.1    103.464          4 
       126    0.05184     11.492      9.287      52.35     76.248          4 
       127    3.42792     10.907       8.07     57.025        5.4          4 
       128     16.038     14.218      11.37       49.8     27.216          4 
       129     31.266     20.603     16.082     36.125       16.2          4 
       130     45.684     22.824     21.485     22.125     43.632          4 
       131    57.9679     24.388     23.376     15.775    195.912          4 
       132    68.7139     25.793     24.557      13.15    195.912          4 
       133    77.0299      26.94     25.841      10.55     168.48          4 
       134    78.2438     26.842     25.987       8.35    152.064          4 
       135    72.9259     27.259     26.842       8.35    135.864          4 
       136    63.1001     27.776     27.628        7.7    174.096          4 
       137    49.6001     28.221     27.776      8.075    114.264          4 
       138    33.3742     27.924      26.94       8.45     70.848          4 
       139    18.1181     27.284     25.525       8.35     54.432          4 
       140      3.564     24.702     22.705      11.25     38.016          4 
       141    0.24192     21.366     18.343      17.95          0          4 
       142    0.05184     18.461     16.082     24.025          0          4 
       143    0.05184     18.152     16.749       29.1       16.2          4 
       144    0.05184     17.415     15.963      32.45          0          4 
       145    0.05184     16.082     14.649      39.75        5.4          4 
       146    0.05184     15.294     15.031     42.275     81.864          4 
       147    0.05184     14.721     14.218     41.575     81.864          4 
       148    0.05184     13.401     12.461     45.025          0          4 
       149    0.05184     12.727     12.098     45.475        5.4          4 
       150    0.05184     12.074      11.71       47.1          0          4 
       151      2.052     12.606     11.929     45.725       10.8          4 
       152      8.424     15.055     13.401      41.65       21.6          4 
       153    17.2778     18.866     15.819     40.025        5.4          4 
       154    24.1358     20.603     19.436       27.6     70.632          4 
       155      41.04      21.39     20.627     23.575    206.496          4 
       156    53.1101     24.605     22.585     17.225    201.312          4 
       157    52.4621     26.061     23.954     13.075    228.528          4 
       158    63.3139     26.818     25.939      11.85    157.464          4 
       159    55.8079      28.32     26.818       12.1    103.464          4 
       160      41.31      25.89      25.04       15.5     299.16          4 
       161    44.4161      26.72     25.162     17.175    326.376          4 
       162      15.66     23.881     23.232     24.225    315.576          4 
       163    10.7719     23.737     23.232     25.325    206.712          4 
       164    7.15608     24.098     21.915      25.85     38.016          4 
       165    0.34992     20.889     17.106     34.325          0          4 
       166    0.05184     18.271     15.247       43.4       16.2          4 
       167    0.05184     16.868     15.079     43.475     21.816          4 
       168    0.05184     15.605     13.377     45.075          0          4 
       169    0.05184     14.194     13.377       51.6       21.6          4 
       170    0.05184     14.002     13.016     52.975       32.4          4 
       171    0.05184     13.016     11.346     56.475         27          4 
       172    0.05184     12.485     11.807      59.35    108.864          4 
       173    0.05184     12.654     11.419      58.75     92.664          4 
       174    0.05184     11.783     10.173       59.7     43.632          4 
       175      3.672     12.582     11.127     60.575         27          4 
       176     17.604     16.915     13.353      55.05     60.048          4 
       177    25.4059     20.269     18.533     45.575     43.416          4 
       178    39.2839     24.629     20.865       36.9     54.216          4 
       179    54.0281     26.231     24.702     27.525     54.432          4 
       180      61.02     27.235     26.012      23.15    125.064          4 
       181    81.3521      29.14     28.023     17.375    168.696          4 
       182     56.538     28.394     27.998      14.55    239.328          4 
       183    59.1581      29.14     27.702     14.275    201.312          4 
       184     62.208     29.615      29.09     12.925    217.728          4 
       185    35.3441     29.765      27.85     11.475    195.912          4 
       186    17.9842     27.702      26.28      13.15    228.312          4 
       187    8.55792     25.841     25.016      16.05    217.728          4 
       188    2.56608     24.677     23.376     19.425    135.864          4 
       189    0.10584     22.729     22.106     22.325       37.8          4 
       190    0.05184     22.011     21.413      25.35     81.648          4 
       191    0.05184     21.748     19.817       29.3     81.432          4 
       192    0.05184     19.651     19.413     33.875       10.8          4 
       193    0.05184     19.793     19.199       35.1       10.8          4 
       194    0.05184     21.509     20.126      30.85     76.248          4 
       195    0.05184     20.722     19.579     33.525     65.232          4 
       196    0.05184     19.484     18.176     36.575     65.232          4 
       197    0.05184     17.938      14.84     40.675       16.2          4 
       198    0.05184     15.461     13.064       48.9        5.4          4 
       199    2.45592     14.433     12.727      52.65        5.4          4 
       200    16.7659     18.152     15.843       49.1       16.2          4 
       201     31.698     23.352      19.46       40.4       32.4          4 
       202    45.3859     26.207     24.557     27.975     32.616          4 
       203    57.6698     28.023     26.451     23.975     38.016          4 
       204     69.228     28.965     28.122     20.375    103.464          4 
       205      76.68     30.217     29.215       18.8    119.664          4 
       206      77.22     31.357     30.041     16.275     168.48          4 
       207    66.8261     29.464      28.32     19.975     478.44          4 
       208     56.052     27.974     27.235     22.875    484.056          4 
       209    44.5219     26.744     25.331      25.45    522.072          4 
       210    31.3999     24.919     23.857       27.6    516.672          4 
       211      17.01     23.545     21.628     29.875     451.44          4 
       212      3.456     21.008     19.508     32.675    418.824          4 
       213    0.18792     19.056     17.558     31.825    391.392          4 
       214    0.05184     17.415     16.796      28.05     261.36          4 
       215    0.05184     16.392     15.031     29.125     59.832          4 
       216    0.05184     15.151     14.074     31.725     32.616          4 
       217    0.05184     13.642     12.775       35.2          0          4 
       218    0.05184     12.678     11.832       36.8          0          4 
       219    0.05184     11.613     10.638      40.25          0          4 
       220    0.05184     11.832     10.858     42.525     70.848          4 
       221    0.05184     12.171     11.734     44.925    135.864          4 
       222    0.05184      12.05     11.662       47.9     141.48          4 
       223       2.43     11.346      10.98     55.025    179.496          4 
       224    14.0681     11.832     11.151     50.025    217.728          4 
       225      12.96     11.516     11.394      47.25     163.08          4 
       226     12.744     11.443     11.053      50.35    114.264          4 
       227    17.7401     12.147     11.321     50.775    130.464          4 
       228    25.6219     13.233     11.565      49.45    179.496          4 
       229    46.4659     14.529     13.353     44.475    195.912          4 
       230     39.204     15.223     13.425     44.325    217.512          4 
       231    33.5858     15.294     12.751     46.375     288.36          4 
       232    11.2601     12.968     11.346      54.85     293.76          4 
       233    6.99408     11.005      9.238     66.825    277.128          4 
       234    4.88592       9.04      8.693      80.95    195.912          4 
       235      4.536      8.568      8.419      86.45    103.248          4 
       236    1.86192       8.22      8.095      88.35       32.4          4 
       237    0.10584       8.22      8.145      89.05          0          4 
       238    0.05184      8.295      8.195      89.55          0          4 
       239    0.05184      8.568      8.145      90.05          0          4 
       240    0.05184      8.394       8.17     90.125          0          4 
       241    0.05184      8.394      8.344     90.575         27          4 
       242    0.05184      8.593      8.444      90.85       10.8          4 
       243    0.05184      8.568      8.519     90.375          0          4 
       244    0.05184      8.543      8.419       89.3          0          4 
       245    0.05184      8.519      8.319       87.8          0          4 
       246    0.05184      8.419       8.27      86.35          0          4 
       247      0.594      8.618      8.369      86.55          0          4 
       248    2.88792      8.941      8.717     86.775          0          4 
       249    8.15184      9.386      9.064      85.45       10.8          4 
       250    10.8259       9.78      9.336      81.55        5.4          4 
       251      9.774      9.509      9.287       78.5       10.8          4 
       252    15.7702      9.608      9.312       80.3          0          4 
       253    12.6079       9.78      8.817     80.375          0          4 
       254      8.694       8.99      8.419      82.65        5.4          4 
       255      8.748      8.469       7.82       85.4     38.232          4 
       256    17.1461      9.509      8.817      86.15          0          4 
       257    14.3618     10.124      9.731      83.15          0          4 
       258    8.18208      9.952      9.435       81.9       21.6          4 
       259    4.75416      9.632      9.435      84.55          0          4 
       260    0.67392       9.41      7.645      85.85     97.848          4 
       261    0.07992       7.82      7.619       90.7    141.264          4 
       262    0.05184      7.594      7.569     91.925     38.016          4 
       263    0.05184      7.594      7.519       92.4          0          4 
       264    0.05184      7.619      7.494     92.475          0          4 
       265    0.05184      7.519      7.041       92.3          0          4 
       266    0.05184      7.444      6.737     92.075          0          4 
       267    0.05184       6.94      5.565     91.725          0          4 
       268    0.05184      5.924      5.488      91.95          0          4 
       269    0.05184      6.408      5.975      92.45          0          4 
       270    0.05184       6.94      6.611     92.725          0          4 
       271    0.64584      7.116       6.99      92.85          0          4 
       272        2.7      7.343      7.091       92.7          0          4 
       273    4.78008      7.569      7.419     92.125         27          4 
       274    10.5581       8.17      7.745      91.45        5.4          4 
       275     13.446      8.717      8.593      89.45     16.416          4 
       276    18.8179      9.435      8.866     86.525     54.648          4 
       277    17.6321      9.632      9.336     85.075     48.816          4 
       278    14.3921      9.731      8.344     86.725    119.664          4 
       279    12.1759      8.195       7.72     90.525    228.528          4 
       280      9.396      7.695      7.293      91.85    239.328          4 
       281    6.29208      7.419      6.864      92.55    152.064          4 
       282      6.048      6.965      6.585       93.4    174.096          4 
       283    4.34808      7.142      6.661     94.075    130.464          4 
       284    1.59192      6.864      6.687     94.075     60.048          4 
       285    0.45792       6.56      5.949     93.475       10.8          4 
       286    0.05184      6.153      6.128      93.15          0          4 
       287    0.05184      6.026      5.719      92.85          0          4 
       288    0.05184      5.539      4.869       92.7          0          4 
       289    0.05184      4.844       3.88       93.1          0          4 
       290    0.05184       3.67      3.168     93.825          0          4 
       291    0.05184      3.301      3.009     94.575          0          4 
       292    0.05184      2.797      2.101     95.275          0          4 
       293    0.05184      2.182      1.615       95.9          0          4 
       294    0.05184      2.262      1.778       96.2          0          4 
       295      4.698      4.428      2.182       96.1          0          4 
       296     18.792      7.645      5.231       93.9          0          4 
       297    34.0999     11.856      8.519       83.4       21.6          4 
       298     48.384     14.074     12.437     67.275       16.2          4 
       299     60.696     15.581     13.786      57.65       32.4          4 
       300    71.6861     16.177     15.366       51.4     54.216          4 
       301     80.406     16.439     15.485     48.375     81.864          4 
       302    81.5119     17.558     16.868      43.85     76.248          4 
       303     77.004     18.366      17.51      39.05     87.264          4 
       304    62.5579     18.271     17.962     36.175     81.864          4 
       305    53.4038     18.985     18.176     34.025     92.664          4 
       306    40.0939     19.199     18.509         34     87.264          4 
       307    13.5281     17.986     17.225       36.4    114.264          4 
       308    11.0441     17.629     16.392     38.225    157.464          4 
       309    0.45792     15.963     15.342     41.325    130.464          4 
       310    0.05184     14.984     13.449       47.1         27          4 
       311    0.05184     13.185     12.316     53.575          0          4 
       312    0.05184     12.171      9.386      60.25          0          4 
       313    0.05184     10.075      9.139     73.175          0          4 
       314    0.05184      8.742      8.319       79.3          0          4 
       315    0.05184      8.767      8.543       80.5          0          4 
       316    0.05184      7.945      7.268     79.625          0          4 
       317    0.05184      8.145      7.544         80          0          4 
       318    0.05184      7.167      6.965      79.95          0          4 
       319      3.726      8.195      7.066     81.125          0          4 
       320    17.2778     12.316      8.469       78.4       10.8          4 
       321    32.1862     15.438     13.954      66.35     16.416          4 
       322    46.9541     16.153     14.768     54.825    266.544          4 
       323    59.5102     17.629     16.725       47.8    358.992          4 
       324     70.578     17.701     17.201     45.125    375.192          4 
       325     66.366     18.628     18.343      40.25     429.84          4 
       326    58.7261     19.484     18.414     39.075    353.592          4 
       327    29.6719     18.699     18.105     40.575    277.128          4 
       328    16.4959     18.081     16.868     41.725    250.128          4 
       329    4.67208     16.654     16.153     40.625    228.312          4 
       330    3.75408     16.129     15.629      37.45    163.296          4 
       331    3.31992     15.557     14.577       39.3     163.08          4 
       332    1.78416     14.314      13.57     47.625    201.096          4 
       333    0.05184     13.449     13.016     50.075     98.064          4 
       334    0.05184     13.064     12.098       52.7    124.848          4 
       335    0.05184     12.001     10.932       61.7    103.464          4 
       336    0.05184     10.858     10.001     70.175     70.848          4 
       337    0.05184      9.558       8.99     77.325    108.864          4 
       338    0.05184      9.213      8.792     72.925     65.016          4 
       339    0.05184      8.693      8.519       78.4     43.632          4 
       340    0.05184      8.891      8.767      76.65       16.2          4 
       341    0.05184      9.064      8.941     75.025       32.4          4 
       342    0.05184      8.916      8.841     73.775     60.048          4 
       343    0.61992      8.841      8.717       73.4        5.4          4 
       344       3.51     10.149      8.891       72.4          0          4 
       345    8.28792     11.467     10.565      62.15       10.8          4 
       346    14.8759     12.364     11.686     57.225     60.048          4 
       347    26.3779     13.882     12.534      51.55     157.68          4 
       348     44.226     16.201     14.673     42.725     157.68          4 
       349      66.69     17.011     16.153     36.925    141.264          4 
       350     64.098     18.889     16.749      32.75    135.864          4 
       351    68.3122     19.984     18.533       27.7    184.896          4 
       352     58.374     20.007     18.818     26.125    212.112          4 
       353     45.198     19.603     18.533       26.8     152.28          4 
       354    38.2579     19.436     18.937     26.575    223.128          4 
       355     21.168     18.913     17.962      27.85    141.264          4 
       356    7.80192     17.677     16.415     35.175    141.264          4 
       357    0.56592     15.986     14.768     40.575     49.032          4 
       358    0.05184     14.074     12.678     48.475     32.616          4 
       359    0.05184     12.122     10.834     55.625          0          4 
       360    0.05184     10.834     10.443     61.725          0          4 
       361    0.05184     10.394     10.001     62.375          0          4 
       362    0.05184     10.198      9.632       61.9          0          4 