Pcp_File_Version=4
*** BLOCK I: ATMOSPHERIC INFORMATION  **********************************
   MaxAL                    (MaxAL = number of atmospheric data-records)
   2256
 DailyVar  SinusVar  lLay  lBCCycles lInterc lDummy  lDummy  lDummy  lDummy  lDummy
       f       f       f       f       f       f       f       f       f       f
 hCritS                 (max. allowed pressure head at the soil surface)
      0
       tAtm        Prec       rSoil       rRoot      hCritA          rB          hB          ht    RootDepth
1 0 0 0 5206 0 0 0 6.29 
2 0 0 0 5206 0 0 0 6.30124 
3 0 0 0 5206 0 0 0 6.3125 
4 0 0 0 5206 0 0 0 6.32377 
5 0 0 0.000323292 5206 0 0 0 6.33505 
6 0 0 0.00016802 5206 0 0 0 6.34635 
7 0 0 0.000257414 5206 0 0 0 6.35766 
8 0 0 0.00099422 5206 0 0 0 6.36898 
9 0 0 0.00188395 5206 0 0 0 6.38031 
10 0 0 0.00247194 5206 0 0 0 6.39166 
11 0 0 0.00295497 5206 0 0 0 6.40303 
12 0 0 0.00343684 5206 0 0 0 6.4144 
13 0 0 0.00377277 5206 0 0 0 6.42579 
14 0 0 0.00379686 5206 0 0 0 6.43719 
15 0 0 0.00371457 5206 0 0 0 6.44861 
16 0 0 0.00329766 5206 0 0 0 6.46003 
17 0 0 0.00194466 5206 0 0 0 6.47148 
18 0 0 0.00131888 5206 0 0 0 6.48293 
19 0 0 0.000822564 5206 0 0 0 6.4944 
20 0 0 0.000606184 5206 0 0 0 6.50588 
21 0 0 0.000364429 5206 0 0 0 6.51737 
22 0 0 0.000209771 5206 0 0 0 6.52888 
23 0 0 0.000165624 5206 0 0 0 6.5404 
24 0 0 0.000135603 5206 0 0 0 6.55194 
25 0 0 0.000101798 5206 0 0 0 6.56348 
26.0006 2.41087 0 6.44e-005 5206 0 0 0 6.57504 
27 0 0 0 5206 0 0 0 6.58661 
28 0 0 7.89e-005 5206 0 0 0 6.5982 
29 0 0 0.000213208 5206 0 0 0 6.6098 
30 0 0 0.000220619 5206 0 0 0 6.62141 
31 0 0 0.000185616 5206 0 0 0 6.63304 
32 0 0 0.000277432 5206 0 0 0 6.64467 
33 0 0 0.000499295 5206 0 0 0 6.65633 
34 0 0 0.000969871 5206 0 0 0 6.66799 
35 0 0 0.00113182 5206 0 0 0 6.67967 
36 0 0 0.0013397 5206 0 0 0 6.69136 
37 0 0 0.00166183 5206 0 0 0 6.70306 
38 0 0 0.00230187 5206 0 0 0 6.71478 
39 0 0 0.00307933 5206 0 0 0 6.72651 
40 0 0 0.002725 5206 0 0 0 6.73825 
41 0 0 0.00247183 5206 0 0 0 6.75 
42 0 0 0.00191838 5206 0 0 0 6.76177 
43 0 0 0.00099321 5206 0 0 0 6.77355 
44 0 0 0.000395581 5206 0 0 0 6.78534 
45 0 0 0 5206 0 0 0 6.79715 
46 0 0 0 5206 0 0 0 6.80897 
47 0 0 0 5206 0 0 0 6.8208 
48 0 0 0 5206 0 0 0 6.83265 
49 0 0 0 5206 0 0 0 6.8445 
50 0 0 0 5206 0 0 0 6.85638 
51 0 0 0 5206 0 0 0 6.86826 
52 0 0 0 5206 0 0 0 6.88016 
53 0 0 0.000143498 5206 0 0 0 6.89206 
54 0 0 0.000142684 5206 0 0 0 6.90399 
55 0 0 0.000210057 5206 0 0 0 6.91592 
56 0 0 0.000432033 5206 0 0 0 6.92787 
57 0 0 0.000835387 5206 0 0 0 6.93983 
58 0 0 0.00125722 5206 0 0 0 6.9518 
59 0 0 0.00146155 5206 0 0 0 6.96379 
60 0 0 0.00161071 5206 0 0 0 6.97578 
61 0 0 0.00160726 5206 0 0 0 6.98779 
62 0 0 0.00165752 5206 0 0 0 6.99982 
63 0 0 0.0013965 5206 0 0 0 7.01185 
64 0 0 0.00113486 5206 0 0 0 7.0239 
65 0 0 0.0014868 5206 0 0 0 7.03596 
66 0 0 0.00132343 5206 0 0 0 7.04804 
67 0 0 0.000999293 5206 0 0 0 7.06012 
68 0 0 0.000386465 5206 0 0 0 7.07222 
69 0 0 0.000165984 5206 0 0 0 7.08433 
70 0 0 0.000279268 5206 0 0 0 7.09646 
71 0 0 7.6e-005 5206 0 0 0 7.10859 
72 0 0 0.000359707 5206 0 0 0 7.12074 
73 0 0 0.000591991 5206 0 0 0 7.13291 
74 0 0 0.000525128 5206 0 0 0 7.14508 
75 0 0 0.000384633 5206 0 0 0 7.15727 
76 0 0 0.000192359 5206 0 0 0 7.16946 
77 0 0 0.000218125 5206 0 0 0 7.18168 
78 0 0 0.000314768 5206 0 0 0 7.1939 
79 0 0 0.00096073 5206 0 0 0 7.20614 
80 0 0 0.00123862 5206 0 0 0 7.21838 
81 0 0 0.00196541 5206 0 0 0 7.23064 
82 0 0 0.00248129 5206 0 0 0 7.24292 
83 0 0 0.00290842 5206 0 0 0 7.2552 
84 0 0 0.00325209 5206 0 0 0 7.2675 
85 0 0 0.00363687 5206 0 0 0 7.27981 
86 0 0 0.00394695 5206 0 0 0 7.29213 
87 0 0 0.00370187 5206 0 0 0 7.30447 
88 0 0 0.00331046 5206 0 0 0 7.31681 
89 0 0 0.0030269 5206 0 0 0 7.32917 
90 0 0 0.00257733 5206 0 0 0 7.34155 
91 0 0 0.00185031 5206 0 0 0 7.35393 
92 0 0 0.00134212 5206 0 0 0 7.36632 
93 0 0 0.000283413 5206 0 0 0 7.37873 
94 0 0 0 5206 0 0 0 7.39115 
95 0 0 0 5206 0 0 0 7.40358 
96 0 0 0 5206 0 0 0 7.41603 
97 0 0 0 5206 0 0 0 7.42848 
98 0 0 0 5206 0 0 0 7.44095 
99 0 0 0 5206 0 0 0 7.45343 
100 0 0 0 5206 0 0 0 7.46593 
101 0 0 0.000136186 5206 0 0 0 7.47843 
102 0 0 0.00013006 5206 0 0 0 7.49095 
103 0 0 0.000254074 5206 0 0 0 7.50348 
104 0 0 0.000862898 5206 0 0 0 7.51602 
105 0 0 0.0017865 5206 0 0 0 7.52857 
106 0 0 0.00265835 5206 0 0 0 7.54113 
107 0 0 0.00351167 5206 0 0 0 7.55371 
108 0 0 0.00440605 5206 0 0 0 7.5663 
109 0 0 0.00489834 5206 0 0 0 7.5789 
110 0 0 0.0051847 5206 0 0 0 7.59151 
111 0 0 0.00501311 5206 0 0 0 7.60413 
112 0 0 0.00445521 5206 0 0 0 7.61677 
113 0 0 0.0033411 5206 0 0 0 7.62941 
114 0 0 0.00229991 5206 0 0 0 7.64207 
115 0 0 0.0014877 5206 0 0 0 7.65474 
116 0 0 0.000809827 5206 0 0 0 7.66743 
117 0 0 0 5206 0 0 0 7.68012 
118 0 0 0 5206 0 0 0 7.69283 
119 0 0 0 5206 0 0 0 7.70554 
120 0 0 0 5206 0 0 0 7.71827 
121 0 0 0 5206 0 0 0 7.73101 
121.5 2.41087 0 0 5206 0 0 0 7.74377 
123 0 0 0 5206 0 0 0 7.75653 
124 0 0 0 5206 0 0 0 7.7693 
125 0 0 0.00041857 5206 0 0 0 7.78209 
126 0 0 0.000361327 5206 0 0 0 7.79489 
127 0 0 0.000325118 5206 0 0 0 7.8077 
128 0 0 0.0010005 5206 0 0 0 7.82052 
129 0 0 0.00195271 5206 0 0 0 7.83336 
130 0 0 0.00301378 5206 0 0 0 7.8462 
131 0 0 0.00424145 5206 0 0 0 7.85906 
132 0 0 0.00490498 5206 0 0 0 7.87192 
133 0 0 0.00531887 5206 0 0 0 7.8848 
134 0 0 0.00532321 5206 0 0 0 7.89769 
135 0 0 0.00497701 5206 0 0 0 7.91059 
136 0 0 0.00451338 5206 0 0 0 7.92351 
137 0 0 0.00335358 5206 0 0 0 7.93643 
138 0 0 0.00195623 5206 0 0 0 7.94936 
139 0 0 0.00059455 5206 0 0 0 7.96231 
140 0 0 0 5206 0 0 0 7.97527 
141 0 0 0 5206 0 0 0 7.98824 
142 0 0 0 5206 0 0 0 8.00122 
143 0 0 0 5206 0 0 0 8.01421 
144 0 0 0 5206 0 0 0 8.02721 
145 0 0 0 5206 0 0 0 8.04023 
146 0 0 0 5206 0 0 0 8.05325 
147 0 0 0 5206 0 0 0 8.06629 
148 0 0 0 5206 0 0 0 8.07933 
149 0 0 0.000224587 5206 0 0 0 8.09239 
150 0 0 0.000205957 5206 0 0 0 8.10546 
151 0 0 0.000332004 5206 0 0 0 8.11854 
152 0 0 0.000714803 5206 0 0 0 8.13163 
153 0 0 0.00121916 5206 0 0 0 8.14473 
154 0 0 0.00194457 5206 0 0 0 8.15784 
155 0 0 0.00331731 5206 0 0 0 8.17097 
156 0 0 0.00419232 5206 0 0 0 8.1841 
157 0 0 0.00437188 5206 0 0 0 8.19724 
158 0 0 0.00471507 5206 0 0 0 8.2104 
159 0 0 0.00397006 5206 0 0 0 8.22357 
160 0 0 0.00360362 5206 0 0 0 8.23674 
161 0 0 0.00387839 5206 0 0 0 8.24993 
162 0 0 0.00187491 5206 0 0 0 8.26313 
163 0 0 0.00112156 5206 0 0 0 8.27634 
164 0 0 8.67e-005 5206 0 0 0 8.28956 
165 0 0 0 5206 0 0 0 8.30279 
166 0 0 0 5206 0 0 0 8.31603 
167 0 0 0 5206 0 0 0 8.32928 
168 0 0 0 5206 0 0 0 8.34255 
169 0 0 0 5206 0 0 0 8.35582 
170 0 0 0 5206 0 0 0 8.3691 
171 0 0 0 5206 0 0 0 8.3824 
172 0 0 0 5206 0 0 0 8.3957 
173 0 0 0.000415611 5206 0 0 0 8.40902 
174 0 0 0.000297841 5206 0 0 0 8.42234 
175 0 0 0.000432482 5206 0 0 0 8.43568 
176 0 0 0.00129832 5206 0 0 0 8.44902 
177 0 0 0.00191192 5206 0 0 0 8.46238 
178 0 0 0.00299265 5206 0 0 0 8.47575 
179 0 0 0.00412275 5206 0 0 0 8.48912 
180 0 0 0.00486217 5206 0 0 0 8.50251 
181 0 0 0.00638347 5206 0 0 0 8.51591 
182 0 0 0.00503718 5206 0 0 0 8.52931 
183 0 0 0.0048746 5206 0 0 0 8.54273 
184 0 0 0.00525664 5206 0 0 0 8.55616 
185 0 0 0.0031473 5206 0 0 0 8.5696 
186 0 0 0.00199079 5206 0 0 0 8.58305 
187 0 0 0.00131607 5206 0 0 0 8.59651 
188 0 0 0.000539019 5206 0 0 0 8.60997 
189 0 0 0 5206 0 0 0 8.62345 
190 0 0 6.13e-005 5206 0 0 0 8.63694 
191 0 0 4.77e-005 5206 0 0 0 8.65044 
192 0 0 0 5206 0 0 0 8.66395 
193 0 0 0 5206 0 0 0 8.67746 
194 0 0 1.45e-005 5206 0 0 0 8.69099 
195 0 0 0 5206 0 0 0 8.70453 
196 0 0 0 5206 0 0 0 8.71808 
197 0 0 0.000320605 5206 0 0 0 8.73163 
198 0 0 0.000255405 5206 0 0 0 8.7452 
199 0 0 0.000369287 5206 0 0 0 8.75878 
200 0 0 0.00128883 5206 0 0 0 8.77236 
200.5 2.41087 0 0.00247388 5206 0 0 0 8.78596 
202 0 0 0.00362873 5206 0 0 0 8.79957 
203 0 0 0.00463618 5206 0 0 0 8.81318 
204 0 0 0.00575187 5206 0 0 0 8.82681 
205 0 0 0.00634489 5206 0 0 0 8.84044 
206 0 0 0.00661642 5206 0 0 0 8.85408 
207 0 0 0.00654093 5206 0 0 0 8.86774 
208 0 0 0.00560628 5206 0 0 0 8.8814 
209 0 0 0.00471452 5206 0 0 0 8.89507 
210 0 0 0.00368131 5206 0 0 0 8.90876 
211 0 0 0.0022917 5206 0 0 0 8.92245 
212 0 0 0.0015618 5206 0 0 0 8.93615 
213 0 0 0.00129454 5206 0 0 0 8.94986 
214 0 0 0.000872137 5206 0 0 0 8.96358 
215 0 0 0 5206 0 0 0 8.97731 
216 0 0 0 5206 0 0 0 8.99104 
217 0 0 0 5206 0 0 0 9.00479 
218 0 0 0 5206 0 0 0 9.01855 
219 0 0 0 5206 0 0 0 9.03231 
220 0 0 0 5206 0 0 0 9.04609 
221 0 0 0.000678432 5206 0 0 0 9.05987 
222 0 0 0.000662928 5206 0 0 0 9.07366 
223 0 0 0.000756555 5206 0 0 0 9.08746 
224 0 0 0.00138427 5206 0 0 0 9.10128 
225 0 0 0.00132848 5206 0 0 0 9.1151 
226 0 0 0.00121558 5206 0 0 0 9.12892 
227 0 0 0.00152239 5206 0 0 0 9.14276 
228 0 0 0.00202195 5206 0 0 0 9.15661 
229 0 0 0.00321567 5206 0 0 0 9.17046 
230 0 0 0.00285529 5206 0 0 0 9.18433 
231 0 0 0.0025105 5206 0 0 0 9.1982 
232 0 0 0.00130738 5206 0 0 0 9.21208 
233 0 0 0.000820941 5206 0 0 0 9.22597 
234 0 0 0.000270601 5206 0 0 0 9.23987 
235 0 0 0 5206 0 0 0 9.25378 
236 0 0 0 5206 0 0 0 9.26769 
237 0 0 0 5206 0 0 0 9.28162 
238 0 0 0 5206 0 0 0 9.29555 
239 0 0 0 5206 0 0 0 9.30949 
240 0 0 0 5206 0 0 0 9.32344 
241 0 0 0 5206 0 0 0 9.3374 
242 0 0 0 5206 0 0 0 9.35137 
243 0 0 0 5206 0 0 0 9.36535 
244 0 0 0 5206 0 0 0 9.37933 
245 0 0 0.00019556 5206 0 0 0 9.39332 
246 0 0 0.000198654 5206 0 0 0 9.40732 
247 0 0 0.000228657 5206 0 0 0 9.42133 
248 0 0 0.000364658 5206 0 0 0 9.43535 
249 0 0 0.000692263 5206 0 0 0 9.44937 
250 0 0 0.000875841 5206 0 0 0 9.46341 
251 0 0 0.000818702 5206 0 0 0 9.47745 
252 0 0 0.00119062 5206 0 0 0 9.4915 
253 0 0 0.000984338 5206 0 0 0 9.50556 
254 0 0 0.000722935 5206 0 0 0 9.51962 
255 0 0 0.000692038 5206 0 0 0 9.5337 
256 0 0 0.00112123 5206 0 0 0 9.54778 
257 0 0 0.000816125 5206 0 0 0 9.56187 
258 0 0 6.09e-005 5206 0 0 0 9.57596 
259 0 0 0 5206 0 0 0 9.59007 
260 0 0 0 5206 0 0 0 9.60418 
261 0 0 0 5206 0 0 0 9.61831 
262 0 0 0 5206 0 0 0 9.63243 
263 0 0 0 5206 0 0 0 9.64657 
264 0 0 0 5206 0 0 0 9.66072 
265 0 0 0 5206 0 0 0 9.67487 
266 0 0 0 5206 0 0 0 9.68903 
267 0 0 0 5206 0 0 0 9.70319 
268 0 0 0 5206 0 0 0 9.71737 
269 0 0 0.00019398 5206 0 0 0 9.73155 
270 0 0 0.000198362 5206 0 0 0 9.74574 
271 0 0 0.00023215 5206 0 0 0 9.75994 
272 0 0 0.000355487 5206 0 0 0 9.77414 
273 0 0 0.000484054 5206 0 0 0 9.78836 
274 0 0 0.000860739 5206 0 0 0 9.80258 
275 0 0 0.00105854 5206 0 0 0 9.8168 
276 0 0 0.00137505 5206 0 0 0 9.83104 
277 0 0 0.0013198 5206 0 0 0 9.84528 
278 0 0 0.00104363 5206 0 0 0 9.85953 
279 0 0 0.00079072 5206 0 0 0 9.87378 
280 0 0 0.000607333 5206 0 0 0 9.88805 
281 0 0 0.000435292 5206 0 0 0 9.90232 
282 0 0 0.000138908 5206 0 0 0 9.91659 
283 0 0 0 5206 0 0 0 9.93088 
284 0 0 0 5206 0 0 0 9.94517 
285 0 0 0 5206 0 0 0 9.95947 
286 0 0 0 5206 0 0 0 9.97377 
287 0 0 0 5206 0 0 0 9.98808 
288 0 0 0 5206 0 0 0 10.0024 
289 0 0 0 5206 0 0 0 10.0167 
290 0 0 0 5206 0 0 0 10.0311 
291 0 0 0 5206 0 0 0 10.0454 
292 0 0 0 5206 0 0 0 10.0597 
293 0 0 0.000181097 5206 0 0 0 10.0741 
294 0 0 0.000183656 5206 0 0 0 10.0885 
295 0 0 0.000425705 5206 0 0 0 10.1028 
296 0 0 0.00132837 5206 0 0 0 10.1172 
297 0 0 0.00249984 5206 0 0 0 10.1316 
298 0 0 0.00379254 5206 0 0 0 10.146 
299 0 0 0.00482637 5206 0 0 0 10.1604 
300 0 0 0.00571053 5206 0 0 0 10.1748 
301 0 0 0.00625105 5206 0 0 0 10.1892 
302 0 0 0.00655576 5206 0 0 0 10.2036 
303 0 0 0.00627542 5206 0 0 0 10.218 
304 0 0 0.00506549 5206 0 0 0 10.2324 
305 0 0 0.00434347 5206 0 0 0 10.2468 
306 0 0 0.00319661 5206 0 0 0 10.2613 
307 0 0 0.000834479 5206 0 0 0 10.2757 
308 0 0 0.000901374 5206 0 0 0 10.2902 
309 0 0 0.000256199 5206 0 0 0 10.3046 
310 0 0 0 5206 0 0 0 10.3191 
311 0 0 0 5206 0 0 0 10.3336 
312 0 0 0 5206 0 0 0 10.348 
313 0 0 0 5206 0 0 0 10.3625 
314 0 0 0 5206 0 0 0 10.377 
315 0 0 0 5206 0 0 0 10.3915 
316 0 0 0 5206 0 0 0 10.406 
317 0 0 0.000231602 5206 0 0 0 10.4205 
318 0 0 0.000230543 5206 0 0 0 10.435 
319 0 0 0.000452443 5206 0 0 0 10.4495 
320 0 0 0.0014361 5206 0 0 0 10.464 
321 0 0 0.0027902 5206 0 0 0 10.4785 
322 0 0 0.00394591 5206 0 0 0 10.4931 
323 0 0 0.00505693 5206 0 0 0 10.5076 
324 0 0 0.00581782 5206 0 0 0 10.5222 
325 0 0 0.00582814 5206 0 0 0 10.5367 
326 0 0 0.00541187 5206 0 0 0 10.5513 
327 0 0 0.00338879 5206 0 0 0 10.5658 
328 0 0 0.00236079 5206 0 0 0 10.5804 
329 0 0 0.00156182 5206 0 0 0 10.5949 
330 0 0 0.00102835 5206 0 0 0 10.6095 
331 0 0 0.000550399 5206 0 0 0 10.6241 
332 0 0 0.00053599 5206 0 0 0 10.6387 
333 0 0 1.18e-005 5206 0 0 0 10.6533 
334 0 0 0.000101507 5206 0 0 0 10.6679 
335 0 0 0 5206 0 0 0 10.6825 
336 0 0 0 5206 0 0 0 10.6971 
337 0 0 0 5206 0 0 0 10.7117 
338 0 0 0 5206 0 0 0 10.7263 
339 0 0 0 5206 0 0 0 10.7409 
340 0 0 0 5206 0 0 0 10.7555 
341 0 0 0.000309123 5206 0 0 0 10.7702 
342 0 0 0.000363982 5206 0 0 0 10.7848 
343 0 0 0.000304389 5206 0 0 0 10.7994 
344 0 0 0.000507713 5206 0 0 0 10.8141 
345 0 0 0.000928502 5206 0 0 0 10.8287 
346 0 0 0.00157473 5206 0 0 0 10.8434 
347 0 0 0.00264566 5206 0 0 0 10.858 
348 0 0 0.004178 5206 0 0 0 10.8727 
349 0 0 0.00594484 5206 0 0 0 10.8874 
350 0 0 0.00585369 5206 0 0 0 10.9021 
351 0 0 0.00640764 5206 0 0 0 10.9167 
352 0 0 0.00563018 5206 0 0 0 10.9314 
353 0 0 0.00426528 5206 0 0 0 10.9461 
354 0 0 0.00391701 5206 0 0 0 10.9608 
355 0 0 0.00155798 5206 0 0 0 10.9755 
356 0 0 0.000782975 5206 0 0 0 10.9902 
357 0 0 0 5206 0 0 0 11.0049 
358 0 0 0 5206 0 0 0 11.0196 
359 0 0 0 5206 0 0 0 11.0343 
360 0 0 0 5206 0 0 0 11.049 
361 0 0 0 5206 0 0 0 11.0637 
362 0 0 0 5206 0 0 0 11.0785 
363 0 0 0 5206 0 0 0 11.0932 
364 0 0 0 5206 0 0 0 11.1079 
365 0 0 0.000268357 5206 0 0 0 11.1226 
366 0 0 0.000268042 5206 0 0 0 11.1374 
367 0 0 0.000563124 5206 0 0 0 11.1521 
368 0 0 0.00184689 5206 0 0 0 11.1669 
369 0 0 0.00286109 5206 0 0 0 11.1816 
370 0 0 0.00463242 5206 0 0 0 11.1964 
371 0 0 0.00686848 5206 0 0 0 11.2111 
372 0 0 0.00705433 5206 0 0 0 11.2259 
373 0 0 0.00769426 5206 0 0 0 11.2407 
374 0 0 0.00697401 5206 0 0 0 11.2554 
375 0 0 0.00692254 5206 0 0 0 11.2702 
376 0 0 0.00621168 5206 0 0 0 11.285 
377 0 0 0.00550325 5206 0 0 0 11.2998 
378 0 0 0.00285038 5206 0 0 0 11.3145 
379 0 0 0.00176725 5206 0 0 0 11.3293 
380 0 0 0.00106875 5206 0 0 0 11.3441 
381 0 0 9.19e-005 5206 0 0 0 11.3589 
382 0 0 0 5206 0 0 0 11.3737 
383 0 0 0 5206 0 0 0 11.3885 
384 0 0 0 5206 0 0 0 11.4033 
385 0 0 0 5206 0 0 0 11.4181 
386 0 0 0 5206 0 0 0 11.4329 
387 0 0 0 5206 0 0 0 11.4477 
388 0 0 0 5206 0 0 0 11.4625 
389 0 0 0.000306196 5206 0 0 0 11.4774 
390 0 0 0.000297378 5206 0 0 0 11.4922 
391 0 0 0.000515109 5206 0 0 0 11.507 
392 0 0 0.00151998 5206 0 0 0 11.5218 
393 0 0 0.00336075 5206 0 0 0 11.5366 
394 0 0 0.00484842 5206 0 0 0 11.5515 
395 0 0 0.00635593 5206 0 0 0 11.5663 
396 0 0 0.00729558 5206 0 0 0 11.5811 
397 0 0 0.00788908 5206 0 0 0 11.596 
398 0 0 0.0086666 5206 0 0 0 11.6108 
399 0 0 0.00851699 5206 0 0 0 11.6257 
400 0 0 0.00626832 5206 0 0 0 11.6405 
401 0 0 0.00353973 5206 0 0 0 11.6554 
402 0 0 0.00279504 5206 0 0 0 11.6702 
403 0 0 0.00143733 5206 0 0 0 11.6851 
404 0 0 0.000716058 5206 0 0 0 11.6999 
405 0 0 0 5206 0 0 0 11.7148 
405.482 2.41087 0 0 5206 0 0 0 11.7296 
407 0 0 0.000102413 5206 0 0 0 11.7445 
408 0 0 6.31e-005 5206 0 0 0 11.7594 
409 0 0 0 5206 0 0 0 11.7742 
410 0 0 0 5206 0 0 0 11.7891 
411 0 0 0 5206 0 0 0 11.804 
412 0 0 0 5206 0 0 0 11.8188 
413 0 0 0.000386352 5206 0 0 0 11.8337 
414 0 0 0.000315516 5206 0 0 0 11.8486 
415 0 0 0.000626139 5206 0 0 0 11.8635 
416 0 0 0.00191257 5206 0 0 0 11.8784 
417 0 0 0.00365853 5206 0 0 0 11.8932 
418 0 0 0.0039906 5206 0 0 0 11.9081 
419 0 0 0.00473507 5206 0 0 0 11.923 
420 0 0 0.00491904 5206 0 0 0 11.9379 
421 0 0 0.00693145 5206 0 0 0 11.9528 
422 0 0 0.00726525 5206 0 0 0 11.9677 
423 0 0 0.00850246 5206 0 0 0 11.9826 
424 0 0 0.00726708 5206 0 0 0 11.9975 
425 0 0 0.00574183 5206 0 0 0 12.0124 
426 0 0 0.00503681 5206 0 0 0 12.0273 
427 0 0 0.0012538 5206 0 0 0 12.0421 
428 0 0 0.000776882 5206 0 0 0 12.057 
429 0 0 0 5206 0 0 0 12.0719 
430 0 0 0 5206 0 0 0 12.0868 
431 0 0 0 5206 0 0 0 12.1017 
432 0 0 0 5206 0 0 0 12.1167 
433 0 0 0 5206 0 0 0 12.1316 
434 0 0 0 5206 0 0 0 12.1465 
435 0 0 0 5206 0 0 0 12.1614 
436 0 0 0 5206 0 0 0 12.1763 
437 0 0 0.000412396 5206 0 0 0 12.1912 
438 0 0 0.000542519 5206 0 0 0 12.2061 
439 0 0 0.000892799 5206 0 0 0 12.221 
440 0 0 0.00252059 5206 0 0 0 12.2359 
441 0 0 0.00447884 5206 0 0 0 12.2508 
442 0 0 0.00632047 5206 0 0 0 12.2657 
443 0 0 0.00823876 5206 0 0 0 12.2807 
444 0 0 0.00978127 5206 0 0 0 12.2956 
445 0 0 0.0106538 5206 0 0 0 12.3105 
446 0 0 0.0112046 5206 0 0 0 12.3254 
447 0 0 0.0092371 5206 0 0 0 12.3403 
448 0 0 0.00855365 5206 0 0 0 12.3552 
449 0 0 0.00625004 5206 0 0 0 12.3701 
450 0 0 0.00372428 5206 0 0 0 12.3851 
451 0 0 0.00142731 5206 0 0 0 12.4 
452 0 0 0 5206 0 0 0 12.4149 
453 0 0 0 5206 0 0 0 12.4298 
454 0 0 0 5206 0 0 0 12.4447 
455 0 0 6.47e-005 5206 0 0 0 12.4596 
456 0 0 0 5206 0 0 0 12.4746 
457 0 0 0.000185414 5206 0 0 0 12.4895 
458 0 0 6.24e-005 5206 0 0 0 12.5044 
459 0 0 0 5206 0 0 0 12.5193 
460 0 0 0 5206 0 0 0 12.5342 
461 0 0 0.000893272 5206 0 0 0 12.5492 
462 0 0 0.000462538 5206 0 0 0 12.5641 
463 0 0 0.00076526 5206 0 0 0 12.579 
464 0 0 0.0023183 5206 0 0 0 12.5939 
465 0 0 0.00435829 5206 0 0 0 12.6088 
466 0 0 0.00650388 5206 0 0 0 12.6237 
467 0 0 0.00841537 5206 0 0 0 12.6387 
468 0 0 0.0102968 5206 0 0 0 12.6536 
469 0 0 0.011293 5206 0 0 0 12.6685 
470 0 0 0.0115834 5206 0 0 0 12.6834 
471 0 0 0.00835012 5206 0 0 0 12.6983 
472 0 0 0.00705917 5206 0 0 0 12.7132 
473 0 0 0.00353954 5206 0 0 0 12.7281 
474 0 0 0.00312395 5206 0 0 0 12.7431 
475 0 0 0.000893268 5206 0 0 0 12.758 
476 0 0 0.000441425 5206 0 0 0 12.7729 
477 0 0 0.000648223 5206 0 0 0 12.7878 
477.5 2.41087 0 0 5206 0 0 0 12.8027 
479 0 0 0.000972819 5206 0 0 0 12.8176 
480 0 0 0.00237247 5206 0 0 0 12.8325 
481 0 0 0.00180434 5206 0 0 0 12.8474 
482 0 0 0.00148254 5206 0 0 0 12.8623 
483 0 0 0.00161502 5206 0 0 0 12.8772 
484 0 0 0.00076788 5206 0 0 0 12.8921 
485 0 0 0.00194537 5206 0 0 0 12.907 
486 0 0 0.00107314 5206 0 0 0 12.9219 
487 0 0 0.000982803 5206 0 0 0 12.9368 
488 0 0 0.00136326 5206 0 0 0 12.9517 
489 0 0 0.00256108 5206 0 0 0 12.9666 
490 0 0 0.00291745 5206 0 0 0 12.9815 
491 0 0 0.00353394 5206 0 0 0 12.9964 
492 0 0 0.00472849 5206 0 0 0 13.0113 
493 0 0 0.00784076 5206 0 0 0 13.0262 
494 0 0 0.0098367 5206 0 0 0 13.0411 
495 0 0 0.00751562 5206 0 0 0 13.056 
496 0 0 0.00938812 5206 0 0 0 13.0709 
497 0 0 0.00761069 5206 0 0 0 13.0858 
498 0 0 0.00391196 5206 0 0 0 13.1007 
499 0 0 0.00187279 5206 0 0 0 13.1155 
500 0 0 0.00100748 5206 0 0 0 13.1304 
501 0 0 0 5206 0 0 0 13.1453 
502 0 0 0 5206 0 0 0 13.1602 
503 0 0 0 5206 0 0 0 13.175 
504 0 0 0 5206 0 0 0 13.1899 
505 0 0 0 5206 0 0 0 13.2048 
506 0 0 3.01e-005 5206 0 0 0 13.2197 
507 0 0 0 5206 0 0 0 13.2345 
508 0 0 0 5206 0 0 0 13.2494 
509 0 0 0.000454942 5206 0 0 0 13.2643 
510 0 0 0.000446582 5206 0 0 0 13.2791 
511 0 0 0.000532106 5206 0 0 0 13.294 
512 0 0 0.000892348 5206 0 0 0 13.3088 
513 0 0 0.00159996 5206 0 0 0 13.3237 
514 0 0 0.00217534 5206 0 0 0 13.3385 
515 0 0 0.00400478 5206 0 0 0 13.3534 
516 0 0 0.0037354 5206 0 0 0 13.3682 
517 0 0 0.00284339 5206 0 0 0 13.3831 
518 0 0 0.00426173 5206 0 0 0 13.3979 
519 0 0 0.0053726 5206 0 0 0 13.4128 
520 0 0 0.00438274 5206 0 0 0 13.4276 
521 0 0 0.00222506 5206 0 0 0 13.4424 
522 0 0 0.00036707 5206 0 0 0 13.4573 
523 0 0 0 5206 0 0 0 13.4721 
524 0 0 0 5206 0 0 0 13.4869 
525 0 0 0 5206 0 0 0 13.5017 
526 0 0 0 5206 0 0 0 13.5166 
527 0 0 0 5206 0 0 0 13.5314 
528 0 0 0 5206 0 0 0 13.5462 
529 0 0 0.000490346 5206 0 0 0 13.561 
530 0 0 0.000331861 5206 0 0 0 13.5758 
531 0 0 0.000539974 5206 0 0 0 13.5906 
532 0 0 0.000389064 5206 0 0 0 13.6054 
533 0 0 0.000998273 5206 0 0 0 13.6202 
534 0 0 0.000632224 5206 0 0 0 13.635 
535 0 0 0.000622443 5206 0 0 0 13.6498 
536 0 0 0.0010296 5206 0 0 0 13.6646 
537 0 0 0.00226742 5206 0 0 0 13.6794 
538 0 0 0.00536221 5206 0 0 0 13.6942 
539 0 0 0.00872147 5206 0 0 0 13.709 
540 0 0 0.0105216 5206 0 0 0 13.7237 
541 0 0 0.0116541 5206 0 0 0 13.7385 
542 0 0 0.0123684 5206 0 0 0 13.7533 
543 0 0 0.0126884 5206 0 0 0 13.768 
544 0 0 0.00453756 5206 0 0 0 13.7828 
545 0 0 0.00336558 5206 0 0 0 13.7976 
546 0 0 0.00159133 5206 0 0 0 13.8123 
547 0 0 0.00203666 5206 0 0 0 13.8271 
548 0 0 0.000485891 5206 0 0 0 13.8418 
548.287 2.41087 0 0.000486789 5206 0 0 0 13.8566 
550 0 0 0 5206 0 0 0 13.8713 
551 0 0 0.000569044 5206 0 0 0 13.886 
552 0 0 0 5206 0 0 0 13.9008 
553 0 0 0 5206 0 0 0 13.9155 
554 0 0 0.0014041 5206 0 0 0 13.9302 
555 0 0 0 5206 0 0 0 13.945 
556 0 0 0.00025286 5206 0 0 0 13.9597 
557 0 0 0.00195287 5206 0 0 0 13.9744 
558 0 0 0.000828612 5206 0 0 0 13.9891 
559 0 0 0.00146822 5206 0 0 0 14.0038 
560 0 0 0.00307238 5206 0 0 0 14.0185 
561 0 0 0.00548593 5206 0 0 0 14.0332 
562 0 0 0.00801108 5206 0 0 0 14.0479 
563 0 0 0.0106959 5206 0 0 0 14.0626 
564 0 0 0.0112005 5206 0 0 0 14.0773 
565 0 0 0.013552 5206 0 0 0 14.0919 
566 0 0 0.0141081 5206 0 0 0 14.1066 
567 0 0 0.0109674 5206 0 0 0 14.1213 
568 0 0 0.0131633 5206 0 0 0 14.1359 
569 0 0 0.0111445 5206 0 0 0 14.1506 
570 0 0 0.00930415 5206 0 0 0 14.1653 
571 0 0 0.00630887 5206 0 0 0 14.1799 
572 0 0 0.00328808 5206 0 0 0 14.1945 
573 0 0 0 5206 0 0 0 14.2092 
574 0 0 0 5206 0 0 0 14.2238 
575 0 0 0.000320635 5206 0 0 0 14.2385 
576 0 0 0.00126888 5206 0 0 0 14.2531 
577 0 0 0.000282828 5206 0 0 0 14.2677 
578 0 0 0 5206 0 0 0 14.2823 
579 0 0 0 5206 0 0 0 14.2969 
580 0 0 0 5206 0 0 0 14.3115 
581 0 0 0.000938857 5206 0 0 0 14.3261 
582 0 0 0.00104705 5206 0 0 0 14.3407 
583 0 0 0.0014703 5206 0 0 0 14.3553 
584 0 0 0.00308166 5206 0 0 0 14.3699 
584.594 2.41087 0 0.00559982 5206 0 0 0 14.3845 
586 0 0 0.00920299 5206 0 0 0 14.3991 
587 0 0 0.0122271 5206 0 0 0 14.4137 
588 0 0 0.0124797 5206 0 0 0 14.4282 
589 0 0 0.0132171 5206 0 0 0 14.4428 
590 0 0 0.0104228 5206 0 0 0 14.4573 
591 0 0 0.0155269 5206 0 0 0 14.4719 
592 0 0 0.011251 5206 0 0 0 14.4864 
593 0 0 0.0086922 5206 0 0 0 14.501 
594 0 0 0.00506904 5206 0 0 0 14.5155 
595 0 0 0.00267135 5206 0 0 0 14.53 
596 0 0 0.00277351 5206 0 0 0 14.5445 
597 0 0 0.00134874 5206 0 0 0 14.5591 
598 0 0 0 5206 0 0 0 14.5736 
599 0 0 0 5206 0 0 0 14.5881 
600 0 0 0 5206 0 0 0 14.6026 
601 0 0 0 5206 0 0 0 14.6171 
602 0 0 0 5206 0 0 0 14.6316 
603 0 0 0 5206 0 0 0 14.646 
604 0 0 0 5206 0 0 0 14.6605 
605 0 0 0.000733725 5206 0 0 0 14.675 
606 0 0 0.000748294 5206 0 0 0 14.6894 
607 0 0 0.0011273 5206 0 0 0 14.7039 
608 0 0 0.00318577 5206 0 0 0 14.7184 
609 0 0 0.00556601 5206 0 0 0 14.7328 
610 0 0 0.00840683 5206 0 0 0 14.7472 
611 0 0 0.010875 5206 0 0 0 14.7617 
612 0 0 0.0128428 5206 0 0 0 14.7761 
613 0 0 0.014386 5206 0 0 0 14.7905 
614 0 0 0.0151241 5206 0 0 0 14.8049 
615 0 0 0.0143335 5206 0 0 0 14.8193 
616 0 0 0.0116729 5206 0 0 0 14.8337 
617 0 0 0.00910779 5206 0 0 0 14.8481 
618 0 0 0.00706129 5206 0 0 0 14.8625 
619 0 0 0.00321209 5206 0 0 0 14.8769 
620 0 0 0.000282964 5206 0 0 0 14.8913 
621 0 0 0 5206 0 0 0 14.9056 
621.276 2.41087 0 0 5206 0 0 0 14.92 
623 0 0 0 5206 0 0 0 14.9344 
624 0 0 0 5206 0 0 0 14.9487 
625 0 0 0 5206 0 0 0 14.9631 
626 0 0 0 5206 0 0 0 14.9774 
627 0 0 0 5206 0 0 0 14.9917 
628 0 0 0 5206 0 0 0 15.006 
629 0 0 0.0007986 5206 0 0 0 15.0204 
630 0 0 0.00129042 5206 0 0 0 15.0347 
631 0 0 0.00286574 5206 0 0 0 15.049 
632 0 0 0.00362134 5206 0 0 0 15.0633 
633 0 0 0.00562659 5206 0 0 0 15.0775 
634 0 0 0.0100199 5206 0 0 0 15.0918 
635 0 0 0.0119105 5206 0 0 0 15.1061 
636 0 0 0.0132808 5206 0 0 0 15.1204 
637 0 0 0.0146428 5206 0 0 0 15.1346 
638 0 0 0.00922119 5206 0 0 0 15.1489 
639 0 0 0.0041588 5206 0 0 0 15.1631 
640 0 0 0.00347718 5206 0 0 0 15.1774 
641 0 0 0.004266 5206 0 0 0 15.1916 
642 0 0 0.00216659 5206 0 0 0 15.2058 
643 0 0 0.00209427 5206 0 0 0 15.22 
644 0 0 0.000400361 5206 0 0 0 15.2342 
645 0 0 0 5206 0 0 0 15.2484 
646 0 0 0 5206 0 0 0 15.2626 
647 0 0 0 5206 0 0 0 15.2768 
648 0 0 0 5206 0 0 0 15.291 
649 0 0 0 5206 0 0 0 15.3052 
650 0 0 0 5206 0 0 0 15.3193 
651 0 0 0 5206 0 0 0 15.3335 
652 0 0 0 5206 0 0 0 15.3476 
653 0 0 0.000547226 5206 0 0 0 15.3618 
654 0 0 0.000611779 5206 0 0 0 15.3759 
655 0 0 0.00112499 5206 0 0 0 15.39 
656 0 0 0.00320789 5206 0 0 0 15.4041 
657 0 0 0.00586201 5206 0 0 0 15.4183 
658 0 0 0.00841747 5206 0 0 0 15.4324 
659 0 0 0.0106814 5206 0 0 0 15.4464 
660 0 0 0.012715 5206 0 0 0 15.4605 
661 0 0 0.0137117 5206 0 0 0 15.4746 
662 0 0 0.0150434 5206 0 0 0 15.4887 
663 0 0 0.0125401 5206 0 0 0 15.5027 
664 0 0 0.0110611 5206 0 0 0 15.5168 
665 0 0 0.0105102 5206 0 0 0 15.5308 
666 0 0 0.00588775 5206 0 0 0 15.5449 
666.415 2.41087 0 0.00589785 5206 0 0 0 15.5589 
668 0 0 0 5206 0 0 0 15.5729 
669 0 0 0 5206 0 0 0 15.5869 
670 0 0 0.000605738 5206 0 0 0 15.6009 
671 0 0 0 5206 0 0 0 15.6149 
672 0 0 0 5206 0 0 0 15.6289 
673 0 0 0 5206 0 0 0 15.6429 
674 0 0 0 5206 0 0 0 15.6569 
675 0 0 0 5206 0 0 0 15.6708 
676 0 0 0 5206 0 0 0 15.6848 
677 0 0 0.00058255 5206 0 0 0 15.6987 
678 0 0 0.000637201 5206 0 0 0 15.7127 
679 0 0 0.00140216 5206 0 0 0 15.7266 
680 0 0 0.00394446 5206 0 0 0 15.7405 
681 0 0 0.0061087 5206 0 0 0 15.7544 
682 0 0 0.00921605 5206 0 0 0 15.7683 
683 0 0 0.011862 5206 0 0 0 15.7822 
684 0 0 0.0140091 5206 0 0 0 15.7961 
685 0 0 0.0151168 5206 0 0 0 15.81 
686 0 0 0.0159193 5206 0 0 0 15.8239 
687 0 0 0.016038 5206 0 0 0 15.8377 
688 0 0 0.0146567 5206 0 0 0 15.8516 
689 0 0 0.0129477 5206 0 0 0 15.8654 
690 0 0 0.00985168 5206 0 0 0 15.8792 
691 0 0 0.00526109 5206 0 0 0 15.8931 
692 0 0 0.00309457 5206 0 0 0 15.9069 
693 0 0 0.0007577 5206 0 0 0 15.9207 
694 0 0 0.000207261 5206 0 0 0 15.9345 
695 0 0 0 5206 0 0 0 15.9483 
696 0 0 0 5206 0 0 0 15.962 
697 0 0 0 5206 0 0 0 15.9758 
698 0 0 0 5206 0 0 0 15.9896 
699 0 0 0 5206 0 0 0 16.0033 
700 0 0 0 5206 0 0 0 16.0171 
701 0 0 0.000657968 5206 0 0 0 16.0308 
702 0 0 0.000992437 5206 0 0 0 16.0445 
703 0 0 0.00118332 5206 0 0 0 16.0582 
704 0 0 0.00289989 5206 0 0 0 16.0719 
705 0 0 0.00518615 5206 0 0 0 16.0856 
706 0 0 0.00896361 5206 0 0 0 16.0993 
707 0 0 0.00830578 5206 0 0 0 16.113 
708 0 0 0.0112424 5206 0 0 0 16.1267 
709 0 0 0.013009 5206 0 0 0 16.1403 
710 0 0 0.016702 5206 0 0 0 16.154 
711 0 0 0.0160994 5206 0 0 0 16.1676 
712 0 0 0.0110873 5206 0 0 0 16.1812 
713 0 0 0.0100451 5206 0 0 0 16.1949 
714 0 0 0.0043857 5206 0 0 0 16.2085 
715 0 0 0.00207858 5206 0 0 0 16.2221 
716 0 0 0.00115774 5206 0 0 0 16.2357 
717 0 0 0 5206 0 0 0 16.2492 
718 0 0 0 5206 0 0 0 16.2628 
719 0 0 1.96e-005 5206 0 0 0 16.2764 
720 0 0 0 5206 0 0 0 16.2899 
721 0 0 0 5206 0 0 0 16.3035 
722 0 0 0 5206 0 0 0 16.317 
723 0 0 0 5206 0 0 0 16.3305 
724 0 0 0 5206 0 0 0 16.344 
725 0 0 0.000847905 5206 0 0 0 16.3575 
726 0 0 0.000666619 5206 0 0 0 16.371 
727 0 0 0.00160469 5206 0 0 0 16.3845 
728 0 0 0.00412715 5206 0 0 0 16.398 
729 0 0 0.00719435 5206 0 0 0 16.4114 
730 0 0 0.0104962 5206 0 0 0 16.4249 
731 0 0 0.0131861 5206 0 0 0 16.4383 
732 0 0 0.0160295 5206 0 0 0 16.4518 
733 0 0 0.018146 5206 0 0 0 16.4652 
734 0 0 0.0108649 5206 0 0 0 16.4786 
735 0 0 0.00750879 5206 0 0 0 16.492 
736 0 0 0.00677773 5206 0 0 0 16.5054 
737 0 0 0.00700995 5206 0 0 0 16.5188 
738 0 0 0.00411418 5206 0 0 0 16.5321 
739 0 0 0.000938245 5206 0 0 0 16.5455 
739.597 2.41087 0 0.000745646 5206 0 0 0 16.5588 
741 0 0 0 5206 0 0 0 16.5722 
742 0 0 0 5206 0 0 0 16.5855 
743 0 0 0 5206 0 0 0 16.5988 
744 0 0 0 5206 0 0 0 16.6121 
745 0 0 0 5206 0 0 0 16.6254 
746 0 0 0 5206 0 0 0 16.6387 
747 0 0 0 5206 0 0 0 16.652 
748 0 0 0 5206 0 0 0 16.6653 
749 0 0 0.000673676 5206 0 0 0 16.6785 
750 0 0 0.000646367 5206 0 0 0 16.6918 
751 0 0 0.00121085 5206 0 0 0 16.705 
752 0 0 0.00329958 5206 0 0 0 16.7182 
753 0 0 0.0057069 5206 0 0 0 16.7315 
754 0 0 0.0103802 5206 0 0 0 16.7447 
755 0 0 0.01356 5206 0 0 0 16.7578 
756 0 0 0.0167114 5206 0 0 0 16.771 
757 0 0 0.0127323 5206 0 0 0 16.7842 
758 0 0 0.0125895 5206 0 0 0 16.7974 
759 0 0 0.0095122 5206 0 0 0 16.8105 
760 0 0 0.0073788 5206 0 0 0 16.8236 
761 0 0 0.0114367 5206 0 0 0 16.8368 
762 0 0 0.0106423 5206 0 0 0 16.8499 
763 0 0 0.00487054 5206 0 0 0 16.863 
764 0 0 0.0019565 5206 0 0 0 16.8761 
765 0 0 0 5206 0 0 0 16.8892 
766 0 0 0.00124048 5206 0 0 0 16.9023 
767 0 0 0 5206 0 0 0 16.9153 
768 0 0 0 5206 0 0 0 16.9284 
769 0 0 0 5206 0 0 0 16.9414 
770 0 0 0 5206 0 0 0 16.9544 
771 0 0 0 5206 0 0 0 16.9675 
772 0 0 0 5206 0 0 0 16.9805 
773 0 0 0.00101313 5206 0 0 0 16.9935 
774 0 0 0.000595336 5206 0 0 0 17.0064 
775 0 0 0.00158532 5206 0 0 0 17.0194 
776 0 0 0.00427514 5206 0 0 0 17.0324 
777 0 0 0.00678381 5206 0 0 0 17.0453 
778 0 0 0.0111937 5206 0 0 0 17.0583 
778.415 2.41087 0 0.0112113 5206 0 0 0 17.0712 
780 0 0 0.0149695 5206 0 0 0 17.0841 
781 0 0 0.0158718 5206 0 0 0 17.097 
782 0 0 0.0178394 5206 0 0 0 17.1099 
783 0 0 0.0163379 5206 0 0 0 17.1228 
784 0 0 0.016265 5206 0 0 0 17.1357 
785 0 0 0.0140559 5206 0 0 0 17.1485 
786 0 0 0.0105515 5206 0 0 0 17.1614 
787 0 0 0.00485117 5206 0 0 0 17.1742 