Pcp_File_Version=4
      1
Welcome to HYDRUS-1D
  
   NOBB     MIT iWeight
   1529       0       0
  lWatF  lChemF    NMat   lTempF
      t       f       1       f
  Model   Hysteresis
      0       0
    thr     ths    Alfa       n         Ks       l
 0.0312  0.3379  0.0201  1.4245    1.33708     0.5 
      1       0       1       1          1       0 
      0    0.25   0.001     1.1        0.1       0 
   0.15    0.45     0.3       4        100       0 
      HO(N)         FOS   ITYPE(N) POS     WTS
         721     0.093446     2     1        1 
         722    0.0929253     2     1        1 
         723    0.0922626     2     1        1 
         724    0.0915373     2     1        1 
         725    0.0913163     2     1        1 
         726    0.0910159     2     1        1 
         727    0.0907153     2     1        1 
         728    0.0915031     2     1        1 
         729    0.0945123     2     1        1 
         730    0.0978702     2     1        1 
         731      0.10028     2     1        1 
         732     0.101145     2     1        1 
         733     0.100752     2     1        1 
         734     0.101743     2     1        1 
         735    0.0955996     2     1        1 
         736    0.0941946     2     1        1 
         737    0.0947786     2     1        1 
         738    0.0931683     2     1        1 
         739    0.0909103     2     1        1 
         740     0.199507     2     1        1 
         741     0.217309     2     1        1 
         742     0.202653     2     1        1 
         743     0.196342     2     1        1 
         744     0.191851     2     1        1 
         745     0.188416     2     1        1 
         746      0.18547     2     1        1 
         747     0.183299     2     1        1 
         748     0.181619     2     1        1 
         749     0.179999     2     1        1 
         750     0.178878     2     1        1 
         751     0.177332     2     1        1 
         752     0.176414     2     1        1 
         753      0.17549     2     1        1 
         754     0.175041     2     1        1 
         755     0.172472     2     1        1 
         756      0.16755     2     1        1 
         757     0.162284     2     1        1 
         758     0.157151     2     1        1 
         759     0.156519     2     1        1 
         760     0.150675     2     1        1 
         761     0.148138     2     1        1 
         762     0.148208     2     1        1 
         763     0.144534     2     1        1 
         764     0.140217     2     1        1 
         765     0.137664     2     1        1 
         766      0.13589     2     1        1 
         767     0.134399     2     1        1 
         768     0.133474     2     1        1 
         769     0.132836     2     1        1 
         770     0.132267     2     1        1 
         771     0.132052     2     1        1 
         772     0.131625     2     1        1 
         773     0.130986     2     1        1 
         774     0.130417     2     1        1 
         775     0.129992     2     1        1 
         776     0.130842     2     1        1 
         777     0.132762     2     1        1 
         778     0.134753     2     1        1 
         779     0.178389     2     1        1 
         780     0.221771     2     1        1 
         781     0.209707     2     1        1 
         782     0.203117     2     1        1 
         783     0.197579     2     1        1 
         784     0.194065     2     1        1 
         785     0.185668     2     1        1 
         786     0.178145     2     1        1 
         787     0.172788     2     1        1 
         788     0.168621     2     1        1 
         789     0.165574     2     1        1 
         790     0.164012     2     1        1 
         791     0.163088     2     1        1 
         792      0.16266     2     1        1 
         793     0.161451     2     1        1 
         794      0.16088     2     1        1 
         795     0.160594     2     1        1 
         796     0.160308     2     1        1 
         797     0.159809     2     1        1 
         798     0.159025     2     1        1 
         799     0.158311     2     1        1 
         800     0.158881     2     1        1 
         801     0.159803     2     1        1 
         802     0.159309     2     1        1 
         803     0.156746     2     1        1 
         804     0.151104     2     1        1 
         805     0.145797     2     1        1 
         806     0.141703     2     1        1 
         807     0.138115     2     1        1 
         808     0.134165     2     1        1 
         809     0.129558     2     1        1 
         810     0.123286     2     1        1 
         811     0.121464     2     1        1 
         812     0.118647     2     1        1 
         813     0.116975     2     1        1 
         814     0.115236     2     1        1 
         815     0.114437     2     1        1 
         816     0.113921     2     1        1 
         817     0.112619     2     1        1 
         818     0.112322     2     1        1 
         819     0.112167     2     1        1 
         820     0.112011     2     1        1 
         821     0.111005     2     1        1 
         822     0.110488     2     1        1 
         823     0.109765     2     1        1 
         824     0.140073     2     1        1 
         825      0.21576     2     1        1 
         826      0.20269     2     1        1 
         827     0.195419     2     1        1 
         828     0.188172     2     1        1 
         829     0.181057     2     1        1 
         830     0.175338     2     1        1 
         831     0.169681     2     1        1 
         832     0.163519     2     1        1 
         833     0.155488     2     1        1 
         834     0.146853     2     1        1 
         835     0.138748     2     1        1 
         836     0.131964     2     1        1 
         837     0.127478     2     1        1 
         838     0.125018     2     1        1 
         839     0.123351     2     1        1 
         840      0.12298     2     1        1 
         841     0.122249     2     1        1 
         842      0.12059     2     1        1 
         843     0.119586     2     1        1 
         844     0.118712     2     1        1 
         845     0.118056     2     1        1 
         846     0.117335     2     1        1 
         847     0.116962     2     1        1 
         848     0.117026     2     1        1 
         849     0.119537     2     1        1 
         850     0.121776     2     1        1 
         851      0.12216     2     1        1 
         852     0.119214     2     1        1 
         853     0.116768     2     1        1 
         854     0.115558     2     1        1 
         855     0.116073     2     1        1 
         856     0.117243     2     1        1 
         857     0.116741     2     1        1 
         858     0.114051     2     1        1 
         859     0.109141     2     1        1 
         860     0.104274     2     1        1 
         861     0.100405     2     1        1 
         862     0.189678     2     1        1 
         863     0.200122     2     1        1 
         864     0.191814     2     1        1 
         865     0.186679     2     1        1 
         866     0.182739     2     1        1 
         867     0.179707     2     1        1 
         868      0.17724     2     1        1 
         869     0.174982     2     1        1 
         870     0.173003     2     1        1 
         871     0.171519     2     1        1 
         872     0.170388     2     1        1 
         873     0.170317     2     1        1 
         874     0.169038     2     1        1 
         875     0.166203     2     1        1 
         876     0.158916     2     1        1 
         877     0.151264     2     1        1 
         878     0.144947     2     1        1 
         879     0.139466     2     1        1 
         880     0.135173     2     1        1 
         881     0.130699     2     1        1 
         882     0.123547     2     1        1 
         883     0.117247     2     1        1 
         884     0.116958     2     1        1 
         885     0.210907     2     1        1 
         886      0.19857     2     1        1 
         887     0.191702     2     1        1 
         888     0.186934     2     1        1 
         889     0.183141     2     1        1 
         890     0.180047     2     1        1 
         891     0.177371     2     1        1 
         892     0.175045     2     1        1 
         893     0.173068     2     1        1 
         894     0.171585     2     1        1 
         895     0.170101     2     1        1 
         896     0.169112     2     1        1 
         897     0.169039     2     1        1 
         898     0.167339     2     1        1 
         899     0.163163     2     1        1 
         900     0.154736     2     1        1 
         901     0.146577     2     1        1 
         902     0.139387     2     1        1 
         903     0.133166     2     1        1 
         904     0.127125     2     1        1 
         905     0.121689     2     1        1 
         906     0.117258     2     1        1 
         907     0.113783     2     1        1 
         908      0.17954     2     1        1 
         909     0.204033     2     1        1 
         910     0.195347     2     1        1 
         911     0.190093     2     1        1 
         912     0.185879     2     1        1 
         913     0.182502     2     1        1 
         914     0.179826     2     1        1 
         915     0.177573     2     1        1 
         916     0.175599     2     1        1 
         917     0.173907     2     1        1 
         918     0.172286     2     1        1 
         919     0.170945     2     1        1 
         920     0.170238     2     1        1 
         921     0.169248     2     1        1 
         922      0.16741     2     1        1 
         923     0.162598     2     1        1 
         924     0.156296     2     1        1 
         925     0.149202     2     1        1 
         926     0.142299     2     1        1 
         927     0.134938     2     1        1 
         928     0.127617     2     1        1 
         929     0.122716     2     1        1 
         930     0.121265     2     1        1 
         931     0.119585     2     1        1 
         932     0.117071     2     1        1 
         933     0.116059     2     1        1 
         934     0.114622     2     1        1 
         935      0.11375     2     1        1 
         936     0.113391     2     1        1 
         937     0.112813     2     1        1 
         938     0.112159     2     1        1 
         939     0.111581     2     1        1 
         940     0.110862     2     1        1 
         941     0.110567     2     1        1 
         942      0.11013     2     1        1 
         943      0.10905     2     1        1 
         944     0.109694     2     1        1 
         945     0.112125     2     1        1 
         946     0.114361     2     1        1 
         947     0.115647     2     1        1 
         948     0.113618     2     1        1 
         949     0.112669     2     1        1 
         950     0.112297     2     1        1 
         951     0.113093     2     1        1 
         952     0.113913     2     1        1 
         953     0.113377     2     1        1 
         954     0.109814     2     1        1 
         955     0.105421     2     1        1 
         956     0.205032     2     1        1 
         957     0.198719     2     1        1 
         958     0.191713     2     1        1 
         959     0.187085     2     1        1 
         960     0.182379     2     1        1 
         961     0.179213     2     1        1 
         962     0.176673     2     1        1 
         963     0.174345     2     1        1 
         964     0.172296     2     1        1 
         965      0.17166     2     1        1 
         966     0.181466     2     1        1 
         967     0.195185     2     1        1 
         968     0.219717     2     1        1 
         969     0.215643     2     1        1 
         970     0.209807     2     1        1 
         971     0.203402     2     1        1 
         972     0.198403     2     1        1 
         973     0.192705     2     1        1 
         974     0.186446     2     1        1 
         975     0.180874     2     1        1 
         976     0.174583     2     1        1 
         977     0.165283     2     1        1 
         978     0.159625     2     1        1 
         979     0.154799     2     1        1 
         980     0.151597     2     1        1 
         981     0.148816     2     1        1 
         982      0.14739     2     1        1 
         983     0.146601     2     1        1 
         984     0.145168     2     1        1 
         985     0.145026     2     1        1 
         986     0.146095     2     1        1 
         987      0.14809     2     1        1 
         988     0.153155     2     1        1 
         989     0.153234     2     1        1 
         990     0.153234     2     1        1 
         991     0.152242     2     1        1 
         992      0.15146     2     1        1 
         993       0.1516     2     1        1 
         994     0.151453     2     1        1 
         995     0.148813     2     1        1 
         996     0.142759     2     1        1 
         997     0.137689     2     1        1 
         998     0.133817     2     1        1 
         999     0.130936     2     1        1 
        1000     0.127715     2     1        1 
        1001     0.124899     2     1        1 
        1002      0.12051     2     1        1 
        1003     0.114131     2     1        1 
        1004     0.111293     2     1        1 
        1005     0.108397     2     1        1 
        1006     0.106659     2     1        1 
        1007      0.10528     2     1        1 
        1008     0.104275     2     1        1 
        1009     0.103681     2     1        1 
        1010     0.103178     2     1        1 
        1011     0.102944     2     1        1 
        1012     0.102725     2     1        1 
        1013     0.102002     2     1        1 
        1014     0.101499     2     1        1 
        1015     0.101343     2     1        1 
        1016     0.102208     2     1        1 
        1017     0.104219     2     1        1 
        1018     0.105664     2     1        1 
        1019     0.156774     2     1        1 
        1020     0.209771     2     1        1 
        1021     0.196608     2     1        1 
        1022     0.188188     2     1        1 
        1023     0.180533     2     1        1 
        1024     0.173347     2     1        1 
        1025     0.165574     2     1        1 
        1026     0.157277     2     1        1 
        1027     0.151586     2     1        1 
        1028     0.148094     2     1        1 
        1029     0.145889     2     1        1 
        1030      0.14446     2     1        1 
        1031     0.143317     2     1        1 
        1032     0.142316     2     1        1 
        1033     0.141168     2     1        1 
        1034     0.139956     2     1        1 
        1035     0.138885     2     1        1 
        1036     0.138449     2     1        1 
        1037      0.13795     2     1        1 
        1038     0.137808     2     1        1 
        1039     0.137667     2     1        1 
        1040     0.137525     2     1        1 
        1041     0.137309     2     1        1 
        1042     0.136669     2     1        1 
        1043     0.136386     2     1        1 
        1044      0.13617     2     1        1 
        1045     0.132434     2     1        1 
        1046     0.126758     2     1        1 
        1047     0.123947     2     1        1 
        1048     0.122814     2     1        1 
        1049     0.121511     2     1        1 
        1050     0.118184     2     1        1 
        1051     0.114295     2     1        1 
        1052     0.110301     2     1        1 
        1053     0.106826     2     1        1 
        1054     0.105151     2     1        1 
        1055     0.104133     2     1        1 
        1056     0.103256     2     1        1 
        1057     0.103022     2     1        1 
        1058     0.102378     2     1        1 
        1059     0.101875     2     1        1 
        1060     0.101499     2     1        1 
        1061      0.10128     2     1        1 
        1062     0.100699     2     1        1 
        1063     0.100621     2     1        1 
        1064     0.139075     2     1        1 
        1065     0.210124     2     1        1 
        1066     0.195853     2     1        1 
        1067     0.187485     2     1        1 
        1068     0.180655     2     1        1 
        1069     0.173955     2     1        1 
        1070     0.165906     2     1        1 
        1071      0.15792     2     1        1 
        1072     0.150983     2     1        1 
        1073     0.141382     2     1        1 
        1074     0.130441     2     1        1 
        1075     0.127854     2     1        1 
        1076     0.125985     2     1        1 
        1077     0.124688     2     1        1 
        1078     0.123524     2     1        1 
        1079     0.121933     2     1        1 
        1080     0.120565     2     1        1 
        1081     0.119405     2     1        1 
        1082     0.118253     2     1        1 
        1083     0.116883     2     1        1 
        1084     0.115938     2     1        1 
        1085     0.115503     2     1        1 
        1086     0.114926     2     1        1 
        1087     0.115057     2     1        1 
        1088     0.114829     2     1        1 
        1089     0.115897     2     1        1 
        1090     0.116028     2     1        1 
        1091     0.116137     2     1        1 
        1092     0.114185     2     1        1 
        1093     0.113389     2     1        1 
        1094     0.112745     2     1        1 
        1095     0.111883     2     1        1 
        1096      0.11016     2     1        1 
        1097     0.107483     2     1        1 
        1098     0.105461     2     1        1 
        1099     0.103721     2     1        1 
        1100     0.102122     2     1        1 
        1101      0.10108     2     1        1 
        1102      0.10539     2     1        1 
        1103     0.108291     2     1        1 
        1104      0.10816     2     1        1 
        1105     0.109021     2     1        1 
        1106     0.108945     2     1        1 
        1107     0.108225     2     1        1 
        1108     0.107779     2     1        1 
        1109     0.106623     2     1        1 
        1110     0.105892     2     1        1 
        1111      0.10516     2     1        1 
        1112     0.104416     2     1        1 
        1113      0.10716     2     1        1 
        1114     0.175516     2     1        1 
        1115     0.208338     2     1        1 
        1116     0.197719     2     1        1 
        1117     0.189567     2     1        1 
        1118     0.182883     2     1        1 
        1119     0.176392     2     1        1 
        1120     0.168406     2     1        1 
        1121     0.159529     2     1        1 
        1122     0.155753     2     1        1 
        1123       0.1569     2     1        1 
        1124     0.153049     2     1        1 
        1125     0.151045     2     1        1 
        1126     0.149185     2     1        1 
        1127     0.147538     2     1        1 
        1128     0.146388     2     1        1 
        1129     0.145027     2     1        1 
        1130     0.143949     2     1        1 
        1131     0.143087     2     1        1 
        1132     0.142082     2     1        1 
        1133     0.141076     2     1        1 
        1134     0.140637     2     1        1 
        1135     0.139772     2     1        1 
        1136     0.139839     2     1        1 
        1137     0.140838     2     1        1 
        1138     0.140673     2     1        1 
        1139     0.137631     2     1        1 
        1140     0.132032     2     1        1 
        1141     0.127437     2     1        1 
        1142     0.124637     2     1        1 
        1143     0.124092     2     1        1 
        1144     0.124134     2     1        1 
        1145     0.123568     2     1        1 
        1146     0.120616     2     1        1 
        1147     0.116865     2     1        1 
        1148     0.113021     2     1        1 
        1149     0.109324     2     1        1 
        1150     0.107081     2     1        1 
        1151     0.106189     2     1        1 
        1152     0.105027     2     1        1 
        1153     0.104509     2     1        1 
        1154     0.103864     2     1        1 
        1155     0.103063     2     1        1 
        1156     0.102765     2     1        1 
        1157     0.102545     2     1        1 
        1158     0.102183     2     1        1 
        1159     0.102734     2     1        1 
        1160     0.146195     2     1        1 
        1161     0.156027     2     1        1 
        1162     0.157118     2     1        1 
        1163     0.156204     2     1        1 
        1164     0.151725     2     1        1 
        1165     0.147238     2     1        1 
        1166     0.143672     2     1        1 
        1167     0.140536     2     1        1 
        1168      0.13696     2     1        1 
        1169     0.133157     2     1        1 
        1170     0.127196     2     1        1 
        1171     0.121791     2     1        1 
        1172     0.117083     2     1        1 
        1173     0.112673     2     1        1 
        1174     0.110638     2     1        1 
        1175      0.10926     2     1        1 
        1176     0.108241     2     1        1 
        1177     0.107081     2     1        1 
        1178     0.106436     2     1        1 
        1179     0.105714     2     1        1 
        1180     0.105353     2     1        1 
        1181     0.105055     2     1        1 
        1182     0.104552     2     1        1 
        1183     0.104113     2     1        1 
        1184     0.104899     2     1        1 
        1185     0.107117     2     1        1 
        1186     0.109192     2     1        1 
        1187     0.110558     2     1        1 
        1188     0.109864     2     1        1 
        1189     0.109671     2     1        1 
        1190     0.109981     2     1        1 
        1191     0.109363     2     1        1 
        1192      0.10698     2     1        1 
        1193     0.105897     2     1        1 
        1194     0.106993     2     1        1 
        1195     0.104828     2     1        1 
        1196     0.103461     2     1        1 
        1197     0.207278     2     1        1 
        1198     0.198334     2     1        1 
        1199     0.190051     2     1        1 
        1200     0.184424     2     1        1 
        1201     0.180482     2     1        1 
        1202     0.177098     2     1        1 
        1203     0.174063     2     1        1 
        1204     0.171803     2     1        1 
        1205     0.169469     2     1        1 
        1206     0.167629     2     1        1 
        1207     0.166355     2     1        1 
        1208     0.164796     2     1        1 
        1209     0.162882     2     1        1 
        1210     0.160824     2     1        1 
        1211     0.157059     2     1        1 
        1212     0.151583     2     1        1 
        1213     0.145382     2     1        1 
        1214     0.140748     2     1        1 
        1215      0.13668     2     1        1 
        1216     0.132278     2     1        1 
        1217     0.127932     2     1        1 
        1218      0.12301     2     1        1 
        1219     0.118599     2     1        1 
        1220     0.114256     2     1        1 
        1221     0.111347     2     1        1 
        1222      0.10953     2     1        1 
        1223     0.108653     2     1        1 
        1224     0.107775     2     1        1 
        1225     0.107478     2     1        1 
        1226     0.106975     2     1        1 
        1227     0.106111     2     1        1 
        1228     0.105877     2     1        1 
        1229     0.105579     2     1        1 
        1230     0.105076     2     1        1 
        1231     0.104636     2     1        1 
        1232     0.104998     2     1        1 
        1233     0.106351     2     1        1 
        1234     0.129004     2     1        1 
        1235     0.209531     2     1        1 
        1236     0.187734     2     1        1 
        1237     0.179315     2     1        1 
        1238      0.17143     2     1        1 
        1239     0.165219     2     1        1 
        1240      0.15884     2     1        1 
        1241     0.150772     2     1        1 
        1242     0.142147     2     1        1 
        1243     0.135431     2     1        1 
        1244     0.129431     2     1        1 
        1245     0.125377     2     1        1 
        1246     0.123128     2     1        1 
        1247     0.122035     2     1        1 
        1248     0.120671     2     1        1 
        1249      0.12022     2     1        1 
        1250     0.119422     2     1        1 
        1251     0.118765     2     1        1 
        1252     0.117618     2     1        1 
        1253     0.117244     2     1        1 
        1254     0.117244     2     1        1 
        1255     0.116444     2     1        1 
        1256     0.116508     2     1        1 
        1257     0.118441     2     1        1 
        1258     0.122663     2     1        1 
        1259     0.230228     2     1        1 
        1260     0.208514     2     1        1 
        1261     0.197751     2     1        1 
        1262     0.189286     2     1        1 
        1263     0.181437     2     1        1 
        1264     0.171798     2     1        1 
        1265      0.16001     2     1        1 
        1266     0.150797     2     1        1 
        1267     0.145169     2     1        1 
        1268     0.141853     2     1        1 
        1269     0.139109     2     1        1 
        1270     0.137299     2     1        1 
        1271     0.136492     2     1        1 
        1272     0.135477     2     1        1 
        1273     0.134538     2     1        1 
        1274     0.133729     2     1        1 
        1275     0.132648     2     1        1 
        1276     0.132133     2     1        1 
        1277     0.131335     2     1        1 
        1278     0.130819     2     1        1 
        1279     0.130459     2     1        1 
        1280     0.130665     2     1        1 
        1281     0.131889     2     1        1 
        1282     0.131051     2     1        1 
        1283     0.134381     2     1        1 
        1284     0.205405     2     1        1 
        1285     0.185473     2     1        1 
        1286     0.172869     2     1        1 
        1287     0.161935     2     1        1 
        1288     0.150312     2     1        1 
        1289     0.139711     2     1        1 
        1290      0.13137     2     1        1 
        1291     0.125409     2     1        1 
        1292     0.119851     2     1        1 
        1293     0.116368     2     1        1 
        1294     0.114618     2     1        1 
        1295     0.113098     2     1        1 
        1296     0.112221     2     1        1 
        1297     0.111344     2     1        1 
        1298     0.110764     2     1        1 
        1299     0.110042     2     1        1 
        1300     0.109603     2     1        1 
        1301     0.109086     2     1        1 
        1302     0.108866     2     1        1 
        1303      0.10871     2     1        1 
        1304     0.109135     2     1        1 
        1305     0.109999     2     1        1 
        1306      0.11143     2     1        1 
        1307     0.112514     2     1        1 
        1308     0.112386     2     1        1 
        1309     0.111756     2     1        1 
        1310     0.112312     2     1        1 
        1311     0.113612     2     1        1 
        1312     0.114664     2     1        1 
        1313     0.113802     2     1        1 
        1314     0.110947     2     1        1 
        1315      0.10841     2     1        1 
        1316     0.105211     2     1        1 
        1317     0.102745     2     1        1 
        1318     0.101583     2     1        1 
        1319     0.100561     2     1        1 
        1320    0.0992558     2     1        1 
        1321    0.0987368     2     1        1 